AV-unprocessed.smi:2482|AV-procd|sdf|9776|dock9
  -GOLD-   2272013413D 1   1.00000     0.00000
 Structure written by MMmdl.
 35 36  0  0  0  0  0  0  0  0  2 V2000
  152.3982  143.7278  162.0873 C   0  0  0  0  0  0  0  0  0  0  0  0
  151.8553  143.6175  160.6723 C   0  0  0  0  0  0  0  0  0  0  0  0
  151.0958  144.6654  160.2843 N   0  0  0  0  0  0  0  0  0  0  0  0
  150.5688  144.6506  159.0433 C   0  0  0  0  0  0  0  0  0  0  0  0
  150.7769  143.6020  158.1283 C   0  0  0  0  0  0  0  0  0  0  0  0
  151.5832  142.5097  158.5237 C   0  0  0  0  0  0  0  0  0  0  0  0
  151.8276  141.3930  157.6803 N   0  0  0  0  0  0  0  0  0  0  0  0
  151.2153  141.0784  156.5243 C   0  0  0  0  0  0  0  0  0  0  0  0
  150.3026  141.7362  156.0238 O   0  0  0  0  0  0  0  0  0  0  0  0
  151.7404  139.8140  155.8147 C   0  0  1  0  0  0  0  0  0  0  0  0
  151.5997  138.5097  156.6355 C   0  0  0  0  0  0  0  0  0  0  0  0
  150.1806  138.0952  156.7410 N   0  3  2  0  0  0  0  0  0  0  0  0
  149.9991  136.8890  157.5763 C   0  0  0  0  0  0  0  0  0  0  0  0
  149.5739  137.9584  155.3977 C   0  0  0  0  0  0  0  0  0  0  0  0
  149.7288  139.2663  154.6048 C   0  0  0  0  0  0  0  0  0  0  0  0
  151.1071  139.6357  154.5426 O   0  0  0  0  0  0  0  0  0  0  0  0
  152.1242  142.5081  159.8308 C   0  0  0  0  0  0  0  0  0  0  0  0
  153.1005  141.1792  160.3642 Cl  0  0  0  0  0  0  0  0  0  0  0  0
  153.0290  142.8887  162.3745 H   0  0  0  0  0  0  0  0  0  0  0  0
  151.5748  143.7828  162.7998 H   0  0  0  0  0  0  0  0  0  0  0  0
  152.9928  144.6361  162.1881 H   0  0  0  0  0  0  0  0  0  0  0  0
  149.9565  145.4983  158.7732 H   0  0  0  0  0  0  0  0  0  0  0  0
  150.3095  143.6446  157.1561 H   0  0  0  0  0  0  0  0  0  0  0  0
  152.6291  140.8301  157.9272 H   0  0  0  0  0  0  0  0  0  0  0  0
  152.8005  139.9863  155.6261 H   0  0  0  0  0  0  0  0  0  0  0  0
  152.1713  137.7137  156.1557 H   0  0  0  0  0  0  0  0  0  0  0  0
  152.0255  138.6345  157.6323 H   0  0  0  0  0  0  0  0  0  0  0  0
  150.5093  136.0291  157.1403 H   0  0  0  0  0  0  0  0  0  0  0  0
  148.9407  136.6456  157.6758 H   0  0  0  0  0  0  0  0  0  0  0  0
  150.3982  137.0527  158.5778 H   0  0  0  0  0  0  0  0  0  0  0  0
  150.0528  137.1377  154.8614 H   0  0  0  0  0  0  0  0  0  0  0  0
  148.5170  137.7070  155.4925 H   0  0  0  0  0  0  0  0  0  0  0  0
  149.3592  139.1316  153.5881 H   0  0  0  0  0  0  0  0  0  0  0  0
  149.1284  140.0619  155.0479 H   0  0  0  0  0  0  0  0  0  0  0  0
  149.6923  138.8464  157.2084 H   0  0  0  0  0  0  0  0  0  0  0  0
  1  2  1  0  0  0  0
  1 19  1  0  0  0  0
  1 20  1  0  0  0  0
  1 21  1  0  0  0  0
  2 17  1  0  0  0  0
  2  3  2  0  0  0  0
  3  4  1  0  0  0  0
  4  5  2  0  0  0  0
  4 22  1  0  0  0  0
  5  6  1  0  0  0  0
  5 23  1  0  0  0  0
  6  7  1  0  0  0  0
  6 17  2  0  0  0  0
  7  8  1  0  0  0  0
  7 24  1  0  0  0  0
  8  9  2  0  0  0  0
  8 10  1  0  0  0  0
 10 16  1  0  0  0  0
 10 11  1  0  0  0  0
 10 25  1  0  0  0  0
 11 12  1  0  0  0  0
 11 26  1  0  0  0  0
 11 27  1  0  0  0  0
 12 13  1  0  0  0  0
 12 14  1  0  0  0  0
 12 35  1  0  0  0  0
 13 28  1  0  0  0  0
 13 29  1  0  0  0  0
 13 30  1  0  0  0  0
 14 15  1  0  0  0  0
 14 31  1  0  0  0  0
 14 32  1  0  0  0  0
 15 16  1  0  0  0  0
 15 33  1  0  0  0  0
 15 34  1  0  0  0  0
 17 18  1  0  0  0  0
M  CHG  1  12   1
M  END
> <s_m_source_file>
AV-unprocessed.smi

> <i_m_source_file_index>
2482

> <i_lp_mmshare_version>
43012

> <i_f3d_flags>
0

> <s_epik_input>
W0NIM11jMW5bY0hdW2NIXWMoYzFDbClbTkhdQyg9TylbQ0BASF0yW0NIMl1OKFtDSDNdKVtDSDJdW0NIMl1PMg==

> <s_epik_cmdline>
J2VwaWtfcHl0aG9uJywgJy1waCcsICc3LjAnLCAnLXRuJywgJzgnLCAnLW1hJywgJzIwMCcsICctbWV0YWxfYmluZGluZycsICctaW1hZScsICc8aW5maWxlLm1hZT4nLCAnLW9tYWUnLCAnPG91dGZpbGUubWFlPic=

> <r_epik_Ionization_Penalty>
0.314226

> <r_epik_Ionization_Penalty_Charging>
0.314023

> <r_epik_Ionization_Penalty_Neutral>
0.00020299

> <r_epik_State_Penalty>
0.308208

> <r_epik_Charging_Adjusted_Penalty>
0.62223

> <i_epik_Tot_Q>
1

> <i_epik_Tot_abs_Q>
1

> <r_epik_Metal_State_Penalty>
0.314444

> <b_epik_Metal_Only>
0

> <s_lp_Force_Field>
OPLS_2005

> <r_lp_Energy>
21.5381

> <b_lp_Chiralities_Consistent>
1

> <s_lp_Variant>
AV-unprocessed.smi:2482-2

> <Gold.Version>
5.8.1

> <Gold.Id.Protein>
6NUR|6NUR_protein|mol2

> <Gold.PLP.Fitness>
38.3475

> <Gold.PLP.PLP>
-32.4443

> <Gold.PLP.part.hbond>
-1.0000

> <Gold.PLP.part.metal>
0.0000

> <Gold.PLP.part.buried>
-4.6747

> <Gold.PLP.part.nonpolar>
-27.1968

> <Gold.PLP.part.repulsive>
0.4073

> <Gold.PLP.ligand.clash>
0.0000

> <Gold.PLP.ligand.torsion>
0.0577

> <Gold.PLP.Chemscore.Hbond>
1.0000

> <Gold.PLP.Chemscore.CHOScore>
1.0000

> <Gold.PLP.Chemscore.Metal>
0.0000

> <Gold.Chemscore.Hbonds>
donor molecule, donor type, donor heavy atom, donor atom, acceptor molecule, acceptor atom, score
      P1  H  7989  7998       L1    16  1.00
      L1  C     4    22       P1  8029  0.90

> <Gold.PLP.Chemscore.Internal.Correction>
0.0186

> <Gold.Rescore>
     Score         DG    S(hbond)    S(metal)    S(lipo)     H(rot)  DE(clash)    DE(int)     intcor
     14.92     -17.64       0.94        0.00      98.99       1.00       0.09       2.62       ----

> <Gold.Chemscore.Fitness>
14.9246

> <Gold.Chemscore.DG>
-17.6372

> <Gold.Chemscore.ZeroCoef>
-5.4800

> <Gold.Chemscore.Hbond>
0.9387

> <Gold.Chemscore.Metal>
0.0000

> <Gold.Chemscore.Lipo>
98.9902

> <Gold.Chemscore.Internal_Hbond>
0.0000

> <Gold.Chemscore.DEClash>
0.0888

> <Gold.Chemscore.DEInternal>
2.6238

> <Gold.Chemscore.Rot>
1.0000

> <Gold.Chemscore.Internal.Correction>
   9.000000E+99

> <Gold.Chemscore.Hbonds>
donor molecule, donor type, donor heavy atom, donor atom, acceptor molecule, acceptor atom, score
      P1  H  7989  7998       L1    16  0.69

> <Gold.Chemscore.Hbond.Weighted>
-3.1353

> <Gold.Chemscore.Metal.Weighted>
-0.0000

> <Gold.Chemscore.Lipo.Weighted>
-11.5819

> <Gold.Chemscore.Internal_Hbond.Weighted>
0.0000

> <Gold.Chemscore.DEClash.Weighted>
0.0888

> <Gold.Chemscore.DEInternal.Weighted>
2.6238

> <Gold.Chemscore.Rot.Weighted>
2.5600

> <Gold.Chemscore.Internal.Correction.Weighted>
   9.000000E+99

> <Gold.Protein.RotatedTorsions>
[ 6907 6896 6895 6894 ] final  -23.37 input  -60.11 | X-H torsion
[ 7974 7965 7964 7962 ] final  129.75 input  175.53 | X-H torsion
[ 8008 7997 7996 7995 ] final   55.79 input   59.86 | X-H torsion
[ 10167 10162 10161 10158 ] final  174.89 input  -65.29 | X-H torsion
[ 10718 10713 10712 10709 ] final  168.59 input   66.30 | X-H torsion
[ 10763 10752 10751 10750 ] final -170.02 input  -60.55 | X-H torsion
[ 11005 11000 10999 10996 ] final -166.37 input  -57.11 | X-H torsion

> <Gold.Protein.ActiveResidues>
 VAL166  LYS551  ARG553  GLY616  TRP617  ASP618  TYR619  PRO620  LYS621  CYS622 
 ASP623  PHE694  ASN695  SER759  ASP760  ASP761  ALA762  ILE779  LEU786  VAL792 
 PHE793  MET794  SER795  GLU796  ALA797  LYS798  CYS799  TRP800  GLU811  SER814 

> <Gold.Protein.RotatedAtoms>
  151.2050  135.0458  159.8887 H   0  0  0  0  0  0  0  0  0  0  0  0  # atno 6907 bound_to 6896
  152.5429  134.0808  159.8245 H   0  0  0  0  0  0  0  0  0  0  0  0  # atno 6908 bound_to 6896
  151.0954  133.5236  159.2644 H   0  0  0  0  0  0  0  0  0  0  0  0  # atno 6909 bound_to 6896
  145.0253  139.4094  143.5177 H   0  0  0  0  0  0  0  0  0  0  0  0  # atno 7974 bound_to 7965
  155.5069  140.3476  155.4381 H   0  0  0  0  0  0  0  0  0  0  0  0  # atno 8008 bound_to 7997
  156.0876  140.1402  156.9661 H   0  0  0  0  0  0  0  0  0  0  0  0  # atno 8009 bound_to 7997
  154.4616  140.0933  156.6884 H   0  0  0  0  0  0  0  0  0  0  0  0  # atno 8010 bound_to 7997
  139.5158  144.3094  152.0305 H   0  0  0  0  0  0  0  0  0  0  0  0  # atno 10167 bound_to 10162
  157.0349  131.0270  151.2732 H   0  0  0  0  0  0  0  0  0  0  0  0  # atno 10718 bound_to 10713
  154.6460  135.2905  155.0045 H   0  0  0  0  0  0  0  0  0  0  0  0  # atno 10763 bound_to 10752
  154.1155  135.6556  153.4897 H   0  0  0  0  0  0  0  0  0  0  0  0  # atno 10764 bound_to 10752
  153.0351  135.5275  154.7347 H   0  0  0  0  0  0  0  0  0  0  0  0  # atno 10765 bound_to 10752
  140.5652  134.5293  157.5151 H   0  0  0  0  0  0  0  0  0  0  0  0  # atno 11005 bound_to 11000
  146.3491  139.9774  142.8699 LP  0  0  0  0  0  0  0  0  0  0  0  0  # atno 17320 bound_to 7965
  145.1841  140.9781  143.4249 LP  0  0  0  0  0  0  0  0  0  0  0  0  # atno 17321 bound_to 7965
  140.2539  144.4139  150.6211 LP  0  0  0  0  0  0  0  0  0  0  0  0  # atno 17342 bound_to 10162
  140.6205  143.2176  151.6704 LP  0  0  0  0  0  0  0  0  0  0  0  0  # atno 17343 bound_to 10162
  157.5149  130.7962  149.7745 LP  0  0  0  0  0  0  0  0  0  0  0  0  # atno 17370 bound_to 10713
  156.0057  130.3857  150.2440 LP  0  0  0  0  0  0  0  0  0  0  0  0  # atno 17371 bound_to 10713
  139.9388  134.7825  156.0731 LP  0  0  0  0  0  0  0  0  0  0  0  0  # atno 17394 bound_to 11000
  141.1090  133.6650  156.2933 LP  0  0  0  0  0  0  0  0  0  0  0  0  # atno 17395 bound_to 11000

$$$$
