AV-unprocessed.smi:573|AV-procd|sdf|2971|dock5
  -GOLD-   2262023473D 1   1.00000     0.00000
 Structure written by MMmdl.
 44 46  0  0  0  0  0  0  0  0  1 V2000
  147.3759  141.6051  154.2624 C   0  0  0  0  0  0  0  0  0  0  0  0
  148.8328  141.1523  154.4467 C   0  0  2  0  0  0  0  0  0  0  0  0
  149.4958  141.1183  153.1997 O   0  0  0  0  0  0  0  0  0  0  0  0
  149.0065  139.7972  155.1597 C   0  0  0  0  0  0  0  0  0  0  0  0
  149.7908  139.8913  156.3792 N   0  0  0  0  0  0  0  0  0  0  0  0
  150.4431  140.9551  156.9912 C   0  0  0  0  0  0  0  0  0  0  0  0
  150.4550  142.1971  156.5106 N   0  0  0  0  0  0  0  0  0  0  0  0
  151.2161  142.8669  157.4499 C   0  0  0  0  0  0  0  0  0  0  0  0
  151.6034  144.2245  157.5170 C   0  0  0  0  0  0  0  0  0  0  0  0
  152.3968  144.6886  158.5868 C   0  0  0  0  0  0  0  0  0  0  0  0
  152.8153  143.8040  159.6018 C   0  0  0  0  0  0  0  0  0  0  0  0
  152.4406  142.4474  159.5555 C   0  0  0  0  0  0  0  0  0  0  0  0
  151.6460  141.9887  158.4875 C   0  0  0  0  0  0  0  0  0  0  0  0
  151.1124  140.7484  158.1493 N   0  0  0  0  0  0  0  0  0  0  0  0
  151.2571  139.5056  158.8943 C   0  0  0  0  0  0  0  0  0  0  0  0
  152.7266  139.0676  159.0049 C   0  0  2  0  0  0  0  0  0  0  0  0
  152.8603  137.5933  159.4306 C   0  0  0  0  0  0  0  0  0  0  0  0
  154.3362  137.2126  159.5925 C   0  0  0  0  0  0  0  0  0  0  0  0
  155.0268  138.2064  160.5328 C   0  0  0  0  0  0  0  0  0  0  0  0
  154.7817  139.6488  160.0613 C   0  0  0  0  0  0  0  0  0  0  0  0
  153.3829  139.8962  159.9629 O   0  0  0  0  0  0  0  0  0  0  0  0
  146.8514  141.6312  155.2179 H   0  0  0  0  0  0  0  0  0  0  0  0
  146.8257  140.9385  153.5976 H   0  0  0  0  0  0  0  0  0  0  0  0
  147.3298  142.6062  153.8331 H   0  0  0  0  0  0  0  0  0  0  0  0
  149.3455  141.9065  155.0442 H   0  0  0  0  0  0  0  0  0  0  0  0
  149.0650  140.4829  152.6489 H   0  0  0  0  0  0  0  0  0  0  0  0
  148.0350  139.3608  155.3934 H   0  0  0  0  0  0  0  0  0  0  0  0
  149.5054  139.0964  154.4892 H   0  0  0  0  0  0  0  0  0  0  0  0
  149.8129  139.0311  156.9071 H   0  0  0  0  0  0  0  0  0  0  0  0
  151.2902  144.9098  156.7435 H   0  0  0  0  0  0  0  0  0  0  0  0
  152.6866  145.7282  158.6279 H   0  0  0  0  0  0  0  0  0  0  0  0
  153.4251  144.1675  160.4159 H   0  0  0  0  0  0  0  0  0  0  0  0
  152.7620  141.7673  160.3302 H   0  0  0  0  0  0  0  0  0  0  0  0
  150.8296  139.6439  159.8878 H   0  0  0  0  0  0  0  0  0  0  0  0
  150.6606  138.7312  158.4107 H   0  0  0  0  0  0  0  0  0  0  0  0
  153.2057  139.2058  158.0338 H   0  0  0  0  0  0  0  0  0  0  0  0
  152.3372  137.4335  160.3745 H   0  0  0  0  0  0  0  0  0  0  0  0
  152.3860  136.9422  158.6957 H   0  0  0  0  0  0  0  0  0  0  0  0
  154.4281  136.1968  159.9774 H   0  0  0  0  0  0  0  0  0  0  0  0
  154.8276  137.2259  158.6189 H   0  0  0  0  0  0  0  0  0  0  0  0
  154.6385  138.0841  161.5445 H   0  0  0  0  0  0  0  0  0  0  0  0
  156.0964  138.0008  160.5807 H   0  0  0  0  0  0  0  0  0  0  0  0
  155.2138  140.3539  160.7716 H   0  0  0  0  0  0  0  0  0  0  0  0
  155.2624  139.8320  159.0993 H   0  0  0  0  0  0  0  0  0  0  0  0
  1  2  1  0  0  0  0
  1 22  1  0  0  0  0
  1 23  1  0  0  0  0
  1 24  1  0  0  0  0
  2  3  1  0  0  0  0
  2  4  1  0  0  0  0
  2 25  1  0  0  0  0
  3 26  1  0  0  0  0
  4  5  1  0  0  0  0
  4 27  1  0  0  0  0
  4 28  1  0  0  0  0
  5  6  1  0  0  0  0
  5 29  1  0  0  0  0
  6 14  1  0  0  0  0
  6  7  2  0  0  0  0
  7  8  1  0  0  0  0
  8 13  2  0  0  0  0
  8  9  1  0  0  0  0
  9 10  2  0  0  0  0
  9 30  1  0  0  0  0
 10 11  1  0  0  0  0
 10 31  1  0  0  0  0
 11 12  2  0  0  0  0
 11 32  1  0  0  0  0
 12 13  1  0  0  0  0
 12 33  1  0  0  0  0
 13 14  1  0  0  0  0
 14 15  1  0  0  0  0
 15 16  1  0  0  0  0
 15 34  1  0  0  0  0
 15 35  1  0  0  0  0
 16 21  1  0  0  0  0
 16 17  1  0  0  0  0
 16 36  1  0  0  0  0
 17 18  1  0  0  0  0
 17 37  1  0  0  0  0
 17 38  1  0  0  0  0
 18 19  1  0  0  0  0
 18 39  1  0  0  0  0
 18 40  1  0  0  0  0
 19 20  1  0  0  0  0
 19 41  1  0  0  0  0
 19 42  1  0  0  0  0
 20 21  1  0  0  0  0
 20 43  1  0  0  0  0
 20 44  1  0  0  0  0
M  END
> <s_m_source_file>
AV-unprocessed.smi

> <i_m_source_file_index>
573

> <i_lp_mmshare_version>
43012

> <i_f3d_flags>
0

> <s_epik_input>
W0NIM11bQ0BIXShbT0hdKVtDSDJdW05IXWMobjEpbihjKGMxMilbY0hdW2NIXVtjSF1bY0hdMilbQ0gyXVtDQEBIXTNbQ0gyXVtDSDJdW0NIMl1bQ0gyXU8z

> <s_epik_cmdline>
J2VwaWtfcHl0aG9uJywgJy1waCcsICc3LjAnLCAnLXRuJywgJzgnLCAnLW1hJywgJzIwMCcsICctbWV0YWxfYmluZGluZycsICctaW1hZScsICc8aW5maWxlLm1hZT4nLCAnLW9tYWUnLCAnPG91dGZpbGUubWFlPic=

> <r_epik_Ionization_Penalty>
1.30635

> <r_epik_Ionization_Penalty_Charging>
0

> <r_epik_Ionization_Penalty_Neutral>
1.30635

> <r_epik_State_Penalty>
1.38073

> <r_epik_Charging_Adjusted_Penalty>
1.38073

> <i_epik_Tot_Q>
0

> <i_epik_Tot_abs_Q>
0

> <r_epik_Metal_State_Penalty>
0.00547412

> <b_epik_Metal_Only>
0

> <s_lp_Force_Field>
OPLS_2005

> <r_lp_Energy>
12.415

> <b_lp_Chiralities_Consistent>
1

> <s_lp_Variant>
AV-unprocessed.smi:573-5

> <Gold.Version>
5.8.1

> <Gold.Id.Protein>
6NUR|6NUR_protein|mol2

> <Gold.PLP.Fitness>
45.3032

> <Gold.PLP.PLP>
-42.3133

> <Gold.PLP.part.hbond>
-2.2265

> <Gold.PLP.part.metal>
0.0000

> <Gold.PLP.part.buried>
-5.7737

> <Gold.PLP.part.nonpolar>
-35.2144

> <Gold.PLP.part.repulsive>
0.3931

> <Gold.PLP.ligand.clash>
0.0007

> <Gold.PLP.ligand.torsion>
0.8635

> <Gold.PLP.Chemscore.Hbond>
1.5674

> <Gold.PLP.Chemscore.CHOScore>
0.0000

> <Gold.PLP.Chemscore.Metal>
0.0000

> <Gold.Chemscore.Hbonds>
donor molecule, donor type, donor heavy atom, donor atom, acceptor molecule, acceptor atom, score
      L1  H     3    26       P1  7957  0.48
      P1  H  7989  7998       L1     3  0.09
      P1  H  8011  8017       L1     3  1.00

> <Gold.PLP.Chemscore.Internal.Correction>
0.0154

> <Gold.Rescore>
     Score         DG    S(hbond)    S(metal)    S(lipo)     H(rot)  DE(clash)    DE(int)     intcor
     15.38     -19.19       1.39        0.00     121.66       2.02       0.08       3.74       ----

> <Gold.Chemscore.Fitness>
15.3751

> <Gold.Chemscore.DG>
-19.1893

> <Gold.Chemscore.ZeroCoef>
-5.4800

> <Gold.Chemscore.Hbond>
1.3930

> <Gold.Chemscore.Metal>
0.0000

> <Gold.Chemscore.Lipo>
121.6580

> <Gold.Chemscore.Internal_Hbond>
0.0000

> <Gold.Chemscore.DEClash>
0.0770

> <Gold.Chemscore.DEInternal>
3.7372

> <Gold.Chemscore.Rot>
2.0224

> <Gold.Chemscore.Internal.Correction>
   9.000000E+99

> <Gold.Chemscore.Hbonds>
donor molecule, donor type, donor heavy atom, donor atom, acceptor molecule, acceptor atom, score
      L1  H     3    26       P1  7957  0.48
      P1  H  7989  7998       L1     3  0.08
      P1  H  8011  8017       L1     3  0.63

> <Gold.Chemscore.Hbond.Weighted>
-4.6527

> <Gold.Chemscore.Metal.Weighted>
-0.0000

> <Gold.Chemscore.Lipo.Weighted>
-14.2340

> <Gold.Chemscore.Internal_Hbond.Weighted>
0.0000

> <Gold.Chemscore.DEClash.Weighted>
0.0770

> <Gold.Chemscore.DEInternal.Weighted>
3.7372

> <Gold.Chemscore.Rot.Weighted>
5.1773

> <Gold.Chemscore.Internal.Correction.Weighted>
   9.000000E+99

> <Gold.Protein.RotatedTorsions>
[ 6907 6896 6895 6894 ] final   13.84 input  -60.11 | X-H torsion
[ 7974 7965 7964 7962 ] final  169.53 input  175.53 | X-H torsion
[ 8008 7997 7996 7995 ] final   34.46 input   59.86 | X-H torsion
[ 10167 10162 10161 10158 ] final  -48.07 input  -65.29 | X-H torsion
[ 10718 10713 10712 10709 ] final  -13.74 input   66.30 | X-H torsion
[ 10763 10752 10751 10750 ] final   76.01 input  -60.55 | X-H torsion
[ 11005 11000 10999 10996 ] final  -98.46 input  -57.11 | X-H torsion

> <Gold.Protein.ActiveResidues>
 VAL166  LYS551  ARG553  GLY616  TRP617  ASP618  TYR619  PRO620  LYS621  CYS622 
 ASP623  PHE694  ASN695  SER759  ASP760  ASP761  ALA762  ILE779  LEU786  VAL792 
 PHE793  MET794  SER795  GLU796  ALA797  LYS798  CYS799  TRP800  GLU811  SER814 

> <Gold.Protein.RotatedAtoms>
  151.7926  135.0731  160.0389 H   0  0  0  0  0  0  0  0  0  0  0  0  # atno 6907 bound_to 6896
  152.3145  133.5784  159.5711 H   0  0  0  0  0  0  0  0  0  0  0  0  # atno 6908 bound_to 6896
  150.7337  134.0019  159.3683 H   0  0  0  0  0  0  0  0  0  0  0  0  # atno 6909 bound_to 6896
  144.7352  139.9068  143.6412 H   0  0  0  0  0  0  0  0  0  0  0  0  # atno 7974 bound_to 7965
  155.1551  140.3278  155.4423 H   0  0  0  0  0  0  0  0  0  0  0  0  # atno 8008 bound_to 7997
  156.2561  140.1970  156.6611 H   0  0  0  0  0  0  0  0  0  0  0  0  # atno 8009 bound_to 7997
  154.6445  140.0566  156.9870 H   0  0  0  0  0  0  0  0  0  0  0  0  # atno 8010 bound_to 7997
  140.6747  143.2756  151.4018 H   0  0  0  0  0  0  0  0  0  0  0  0  # atno 10167 bound_to 10162
  156.6259  130.4888  149.6147 H   0  0  0  0  0  0  0  0  0  0  0  0  # atno 10718 bound_to 10713
  153.0695  135.4967  154.8273 H   0  0  0  0  0  0  0  0  0  0  0  0  # atno 10763 bound_to 10752
  154.7002  135.3000  154.9355 H   0  0  0  0  0  0  0  0  0  0  0  0  # atno 10764 bound_to 10752
  154.0081  135.6758  153.4816 H   0  0  0  0  0  0  0  0  0  0  0  0  # atno 10765 bound_to 10752
  141.1344  133.8247  157.0842 H   0  0  0  0  0  0  0  0  0  0  0  0  # atno 11005 bound_to 11000
  146.1031  139.4028  143.0334 LP  0  0  0  0  0  0  0  0  0  0  0  0  # atno 17320 bound_to 7965
  145.7550  140.9957  143.1230 LP  0  0  0  0  0  0  0  0  0  0  0  0  # atno 17321 bound_to 7965
  139.6033  144.1249  152.2222 LP  0  0  0  0  0  0  0  0  0  0  0  0  # atno 17342 bound_to 10162
  140.0640  144.5833  150.7241 LP  0  0  0  0  0  0  0  0  0  0  0  0  # atno 17343 bound_to 10162
  156.2273  130.6773  151.1429 LP  0  0  0  0  0  0  0  0  0  0  0  0  # atno 17370 bound_to 10713
  157.7214  131.0679  150.6119 LP  0  0  0  0  0  0  0  0  0  0  0  0  # atno 17371 bound_to 10713
  140.0432  134.9843  157.1001 LP  0  0  0  0  0  0  0  0  0  0  0  0  # atno 17394 bound_to 11000
  140.4102  134.1989  155.7163 LP  0  0  0  0  0  0  0  0  0  0  0  0  # atno 17395 bound_to 11000

$$$$
