AV-unprocessed.smi:2091|AV-procd|sdf|8540|dock10
  -GOLD-   2272011263D 1   1.00000     0.00000
 Structure written by MMmdl.
 35 36  0  0  0  0  0  0  0  0  2 V2000
  148.0177  131.9134  153.8209 O   0  0  0  0  0  0  0  0  0  0  0  0
  148.3919  132.9917  153.3577 C   0  0  0  0  0  0  0  0  0  0  0  0
  149.7213  133.6171  153.8011 C   0  0  0  0  0  0  0  0  0  0  0  0
  149.6533  134.2254  155.1395 N   0  0  0  0  0  0  0  0  0  0  0  0
  149.2084  135.5561  155.2314 C   0  0  0  0  0  0  0  0  0  0  0  0
  149.1161  136.1943  156.4138 C   0  0  0  0  0  0  0  0  0  0  0  0
  149.4920  135.4689  157.6212 C   0  0  0  0  0  0  0  0  0  0  0  0
  149.4196  136.0379  158.7088 O   0  0  0  0  0  0  0  0  0  0  0  0
  149.9113  134.1771  157.4808 N   0  5  0  0  0  0  0  0  0  0  0  0
  149.9976  133.5401  156.2716 C   0  0  0  0  0  0  0  0  0  0  0  0
  150.3765  132.3726  156.1672 O   0  0  0  0  0  0  0  0  0  0  0  0
  147.6722  133.7019  152.4743 N   0  0  0  0  0  0  0  0  0  0  0  0
  146.3696  133.3115  151.9302 C   0  0  2  0  0  0  0  0  0  0  0  0
  146.5721  132.9645  150.4372 C   0  0  0  0  0  0  0  0  0  0  0  0
  145.4802  132.0464  149.8599 C   0  0  0  0  0  0  0  0  0  0  0  0
  144.0720  132.6593  149.8147 C   0  0  0  0  0  0  0  0  0  0  0  0
  143.5057  133.0141  151.2003 C   0  0  0  0  0  0  0  0  0  0  0  0
  144.0725  134.2502  151.7230 N   0  0  0  0  0  0  0  0  0  0  0  0
  145.3551  134.4732  152.0478 C   0  0  0  0  0  0  0  0  0  0  0  0
  145.7150  135.5879  152.4271 O   0  0  0  0  0  0  0  0  0  0  0  0
  150.5124  132.8652  153.7719 H   0  0  0  0  0  0  0  0  0  0  0  0
  150.0078  134.3622  153.0579 H   0  0  0  0  0  0  0  0  0  0  0  0
  148.9436  136.0187  154.2920 H   0  0  0  0  0  0  0  0  0  0  0  0
  148.7700  137.2158  156.4677 H   0  0  0  0  0  0  0  0  0  0  0  0
  148.0512  134.5822  152.1577 H   0  0  0  0  0  0  0  0  0  0  0  0
  146.0052  132.4373  152.4726 H   0  0  0  0  0  0  0  0  0  0  0  0
  146.6636  133.8693  149.8334 H   0  0  0  0  0  0  0  0  0  0  0  0
  147.5220  132.4403  150.3208 H   0  0  0  0  0  0  0  0  0  0  0  0
  145.7661  131.7637  148.8463 H   0  0  0  0  0  0  0  0  0  0  0  0
  145.4524  131.1163  150.4290 H   0  0  0  0  0  0  0  0  0  0  0  0
  144.0636  133.5382  149.1683 H   0  0  0  0  0  0  0  0  0  0  0  0
  143.4043  131.9365  149.3447 H   0  0  0  0  0  0  0  0  0  0  0  0
  142.4289  133.1647  151.1193 H   0  0  0  0  0  0  0  0  0  0  0  0
  143.6483  132.1963  151.9083 H   0  0  0  0  0  0  0  0  0  0  0  0
  143.4341  135.0264  151.8206 H   0  0  0  0  0  0  0  0  0  0  0  0
  1  2  2  0  0  0  0
  2  3  1  0  0  0  0
  2 12  1  0  0  0  0
  3  4  1  0  0  0  0
  3 21  1  0  0  0  0
  3 22  1  0  0  0  0
  4 10  1  0  0  0  0
  4  5  1  0  0  0  0
  5  6  2  0  0  0  0
  5 23  1  0  0  0  0
  6  7  1  0  0  0  0
  6 24  1  0  0  0  0
  7  8  2  0  0  0  0
  7  9  1  0  0  0  0
  9 10  1  0  0  0  0
 10 11  2  0  0  0  0
 12 13  1  0  0  0  0
 12 25  1  0  0  0  0
 13 19  1  0  0  0  0
 13 14  1  0  0  0  0
 13 26  1  0  0  0  0
 14 15  1  0  0  0  0
 14 27  1  0  0  0  0
 14 28  1  0  0  0  0
 15 16  1  0  0  0  0
 15 29  1  0  0  0  0
 15 30  1  0  0  0  0
 16 17  1  0  0  0  0
 16 31  1  0  0  0  0
 16 32  1  0  0  0  0
 17 18  1  0  0  0  0
 17 33  1  0  0  0  0
 17 34  1  0  0  0  0
 18 19  1  0  0  0  0
 18 35  1  0  0  0  0
 19 20  2  0  0  0  0
M  CHG  1   9  -1
M  END
> <s_m_source_file>
AV-unprocessed.smi

> <i_m_source_file_index>
2091

> <i_lp_mmshare_version>
43012

> <i_f3d_flags>
0

> <s_epik_input>
Tz1jMVtuSF1jKD1PKVtjSF1bY0hdbjFbQ0gyXUMoPU8pW05IXVtDQEBIXTJbQ0gyXVtDSDJdW0NIMl1bQ0gyXVtOSF1DMj1P

> <s_epik_cmdline>
J2VwaWtfcHl0aG9uJywgJy1waCcsICc3LjAnLCAnLXRuJywgJzgnLCAnLW1hJywgJzIwMCcsICctbWV0YWxfYmluZGluZycsICctaW1hZScsICc8aW5maWxlLm1hZT4nLCAnLW9tYWUnLCAnPG91dGZpbGUubWFlPic=

> <r_lp_tautomer_probability>
0.999537

> <r_epik_Ionization_Penalty>
3.03155

> <r_epik_Ionization_Penalty_Charging>
2.38195e-08

> <r_epik_Ionization_Penalty_Neutral>
3.03155

> <r_epik_State_Penalty>
3.03052

> <r_epik_Charging_Adjusted_Penalty>
3.03052

> <i_epik_Tot_Q>
-1

> <i_epik_Tot_abs_Q>
1

> <r_epik_Metal_State_Penalty>
0.455936

> <b_epik_Metal_Only>
1

> <s_lp_Force_Field>
OPLS_2005

> <r_lp_Energy>
21.0708

> <b_lp_Chiralities_Consistent>
1

> <s_lp_Variant>
AV-unprocessed.smi:2091-3

> <Gold.Version>
5.8.1

> <Gold.Id.Protein>
6NUR|6NUR_protein|mol2

> <Gold.PLP.Fitness>
41.3575

> <Gold.PLP.PLP>
-30.8436

> <Gold.PLP.part.hbond>
-2.8032

> <Gold.PLP.part.metal>
0.0000

> <Gold.PLP.part.buried>
-5.2870

> <Gold.PLP.part.nonpolar>
-22.9002

> <Gold.PLP.part.repulsive>
0.2087

> <Gold.PLP.ligand.clash>
0.0000

> <Gold.PLP.ligand.torsion>
0.6719

> <Gold.PLP.Chemscore.Hbond>
2.9520

> <Gold.PLP.Chemscore.CHOScore>
1.0000

> <Gold.PLP.Chemscore.Metal>
0.0000

> <Gold.Chemscore.Hbonds>
donor molecule, donor type, donor heavy atom, donor atom, acceptor molecule, acceptor atom, score
      L1  H    12    25       P1  7948  1.00
      P1  H  6896  6908       L1     9  1.85
      L1  C     5    23       P1  7948  1.00

> <Gold.PLP.Chemscore.Internal.Correction>
0.0018

> <Gold.Rescore>
     Score         DG    S(hbond)    S(metal)    S(lipo)     H(rot)  DE(clash)    DE(int)     intcor
     12.04     -12.60       1.78        0.00      50.52       1.85       0.00       0.56       ----

> <Gold.Chemscore.Fitness>
12.0408

> <Gold.Chemscore.DG>
-12.5986

> <Gold.Chemscore.ZeroCoef>
-5.4800

> <Gold.Chemscore.Hbond>
1.7809

> <Gold.Chemscore.Metal>
0.0000

> <Gold.Chemscore.Lipo>
50.5225

> <Gold.Chemscore.Internal_Hbond>
0.0000

> <Gold.Chemscore.DEClash>
0.0021

> <Gold.Chemscore.DEInternal>
0.5557

> <Gold.Chemscore.Rot>
1.8519

> <Gold.Chemscore.Internal.Correction>
   9.000000E+99

> <Gold.Chemscore.Hbonds>
donor molecule, donor type, donor heavy atom, donor atom, acceptor molecule, acceptor atom, score
      L1  H    12    25       P1  7948  0.26
      P1  H  6896  6908       L1     9  0.19

> <Gold.Chemscore.Hbond.Weighted>
-5.9483

> <Gold.Chemscore.Metal.Weighted>
-0.0000

> <Gold.Chemscore.Lipo.Weighted>
-5.9111

> <Gold.Chemscore.Internal_Hbond.Weighted>
0.0000

> <Gold.Chemscore.DEClash.Weighted>
0.0021

> <Gold.Chemscore.DEInternal.Weighted>
0.5557

> <Gold.Chemscore.Rot.Weighted>
4.7408

> <Gold.Chemscore.Internal.Correction.Weighted>
   9.000000E+99

> <Gold.Protein.RotatedTorsions>
[ 6907 6896 6895 6894 ] final  126.50 input  -60.11 | X-H torsion
[ 7974 7965 7964 7962 ] final    7.62 input  175.53 | X-H torsion
[ 8008 7997 7996 7995 ] final   94.19 input   59.86 | X-H torsion
[ 10167 10162 10161 10158 ] final  -62.32 input  -65.29 | X-H torsion
[ 10718 10713 10712 10709 ] final  -99.51 input   66.30 | X-H torsion
[ 10763 10752 10751 10750 ] final   58.88 input  -60.55 | X-H torsion
[ 11005 11000 10999 10996 ] final -116.41 input  -57.11 | X-H torsion

> <Gold.Protein.ActiveResidues>
 VAL166  LYS551  ARG553  GLY616  TRP617  ASP618  TYR619  PRO620  LYS621  CYS622 
 ASP623  PHE694  ASN695  SER759  ASP760  ASP761  ALA762  ILE779  LEU786  VAL792 
 PHE793  MET794  SER795  GLU796  ALA797  LYS798  CYS799  TRP800  GLU811  SER814 

> <Gold.Protein.RotatedAtoms>
  152.3897  133.6662  159.6227 H   0  0  0  0  0  0  0  0  0  0  0  0  # atno 6907 bound_to 6896
  150.7808  133.8975  159.3340 H   0  0  0  0  0  0  0  0  0  0  0  0  # atno 6908 bound_to 6896
  151.6764  135.0970  160.0259 H   0  0  0  0  0  0  0  0  0  0  0  0  # atno 6909 bound_to 6896
  146.2425  140.0056  142.8411 H   0  0  0  0  0  0  0  0  0  0  0  0  # atno 7974 bound_to 7965
  156.0552  140.3303  155.7396 H   0  0  0  0  0  0  0  0  0  0  0  0  # atno 8008 bound_to 7997
  155.5540  140.0613  157.2861 H   0  0  0  0  0  0  0  0  0  0  0  0  # atno 8009 bound_to 7997
  154.4454  140.1889  156.0704 H   0  0  0  0  0  0  0  0  0  0  0  0  # atno 8010 bound_to 7997
  140.5947  143.2348  151.6063 H   0  0  0  0  0  0  0  0  0  0  0  0  # atno 10167 bound_to 10162
  156.0136  130.5286  150.6681 H   0  0  0  0  0  0  0  0  0  0  0  0  # atno 10718 bound_to 10713
  152.9881  135.5591  154.5624 H   0  0  0  0  0  0  0  0  0  0  0  0  # atno 10763 bound_to 10752
  154.5040  135.2799  155.1399 H   0  0  0  0  0  0  0  0  0  0  0  0  # atno 10764 bound_to 10752
  154.2818  135.6343  153.5403 H   0  0  0  0  0  0  0  0  0  0  0  0  # atno 10765 bound_to 10752
  141.0424  133.9816  157.2974 H   0  0  0  0  0  0  0  0  0  0  0  0  # atno 11005 bound_to 11000
  145.1375  140.9553  143.4508 LP  0  0  0  0  0  0  0  0  0  0  0  0  # atno 17320 bound_to 7965
  145.0327  139.3327  143.6016 LP  0  0  0  0  0  0  0  0  0  0  0  0  # atno 17321 bound_to 7965
  139.5250  144.3087  152.1011 LP  0  0  0  0  0  0  0  0  0  0  0  0  # atno 17342 bound_to 10162
  140.2257  144.4420  150.6322 LP  0  0  0  0  0  0  0  0  0  0  0  0  # atno 17343 bound_to 10162
  157.4409  131.0861  151.0944 LP  0  0  0  0  0  0  0  0  0  0  0  0  # atno 17370 bound_to 10713
  157.1489  130.6175  149.5576 LP  0  0  0  0  0  0  0  0  0  0  0  0  # atno 17371 bound_to 10713
  139.9285  135.0201  156.8320 LP  0  0  0  0  0  0  0  0  0  0  0  0  # atno 17394 bound_to 11000
  140.6210  133.9993  155.7618 LP  0  0  0  0  0  0  0  0  0  0  0  0  # atno 17395 bound_to 11000

$$$$
