AV-unprocessed.smi:1776|AV-procd|sdf|7173|dock7
  -GOLD-   22720 8413D 1   1.00000     0.00000
 Structure written by MMmdl.
 31 32  0  0  0  0  0  0  0  0  1 V2000
  149.8291  140.2707  158.3706 O   0  0  0  0  0  0  0  0  0  0  0  0
  150.6505  140.8934  157.6980 C   0  0  0  0  0  0  0  0  0  0  0  0
  150.4203  141.4056  156.4718 N   0  0  0  0  0  0  0  0  0  0  0  0
  149.2639  141.3676  155.6729 C   0  0  0  0  0  0  0  0  0  0  0  0
  148.1144  142.0506  155.9182 C   0  0  0  0  0  0  0  0  0  0  0  0
  146.9564  141.9523  155.0454 C   0  0  0  0  0  0  0  0  0  0  0  0
  145.7036  142.7785  155.2932 C   0  0  0  0  0  0  0  0  0  0  0  0
  145.8291  143.5377  156.3826 F   0  0  0  0  0  0  0  0  0  0  0  0
  145.4767  143.5789  154.2527 F   0  0  0  0  0  0  0  0  0  0  0  0
  144.6382  141.9928  155.4512 F   0  0  0  0  0  0  0  0  0  0  0  0
  147.0823  141.1565  153.9675 C   0  0  0  0  0  0  0  0  0  0  0  0
  148.2533  140.4389  153.7160 N   0  0  0  0  0  0  0  0  0  0  0  0
  149.3566  140.4876  154.4955 C   0  0  0  0  0  0  0  0  0  0  0  0
  150.3512  139.8242  154.2038 O   0  0  0  0  0  0  0  0  0  0  0  0
  152.0674  141.1267  158.2437 C   0  0  2  0  0  0  0  0  0  0  0  0
  152.7944  139.8192  158.6362 C   0  0  0  0  0  0  0  0  0  0  0  0
  154.0762  140.1341  159.1653 O   0  0  0  0  0  0  0  0  0  0  0  0
  153.9723  140.9611  160.3160 C   0  0  0  0  0  0  0  0  0  0  0  0
  153.2612  142.2673  159.9272 C   0  0  0  0  0  0  0  0  0  0  0  0
  151.9788  141.9571  159.3991 O   0  0  0  0  0  0  0  0  0  0  0  0
  148.2645  139.8528  152.8937 H   0  0  0  0  0  0  0  0  0  0  0  0
  151.1896  141.9167  156.0622 H   0  0  0  0  0  0  0  0  0  0  0  0
  148.0112  142.6851  156.7818 H   0  0  0  0  0  0  0  0  0  0  0  0
  146.3129  141.0119  153.2235 H   0  0  0  0  0  0  0  0  0  0  0  0
  152.6371  141.6453  157.4704 H   0  0  0  0  0  0  0  0  0  0  0  0
  152.2194  139.2497  159.3689 H   0  0  0  0  0  0  0  0  0  0  0  0
  152.9315  139.1776  157.7649 H   0  0  0  0  0  0  0  0  0  0  0  0
  153.4292  140.4419  161.1075 H   0  0  0  0  0  0  0  0  0  0  0  0
  154.9720  141.1715  160.6962 H   0  0  0  0  0  0  0  0  0  0  0  0
  153.1405  142.9076  160.8010 H   0  0  0  0  0  0  0  0  0  0  0  0
  153.8459  142.8270  159.1954 H   0  0  0  0  0  0  0  0  0  0  0  0
  1  2  2  0  0  0  0
  2  3  1  0  0  0  0
  2 15  1  0  0  0  0
  3  4  1  0  0  0  0
  3 22  1  0  0  0  0
  4 13  1  0  0  0  0
  4  5  2  0  0  0  0
  5  6  1  0  0  0  0
  5 23  1  0  0  0  0
  6  7  1  0  0  0  0
  6 11  2  0  0  0  0
  7  8  1  0  0  0  0
  7  9  1  0  0  0  0
  7 10  1  0  0  0  0
 11 12  1  0  0  0  0
 11 24  1  0  0  0  0
 12 21  1  0  0  0  0
 12 13  1  0  0  0  0
 13 14  2  0  0  0  0
 15 20  1  0  0  0  0
 15 16  1  0  0  0  0
 15 25  1  0  0  0  0
 16 17  1  0  0  0  0
 16 26  1  0  0  0  0
 16 27  1  0  0  0  0
 17 18  1  0  0  0  0
 18 19  1  0  0  0  0
 18 28  1  0  0  0  0
 18 29  1  0  0  0  0
 19 20  1  0  0  0  0
 19 30  1  0  0  0  0
 19 31  1  0  0  0  0
M  END
> <s_m_source_file>
AV-unprocessed.smi

> <i_m_source_file_index>
1776

> <i_lp_mmshare_version>
43012

> <i_f3d_flags>
0

> <s_epik_input>
TzFbQ0gyXVtDSDJdT1tDSDJdW0NASF0xQyg9TylbTkhdYzJbY0hdYyhDKEYpKEYpRilbY0hdW25IXWMyPU8=

> <s_epik_cmdline>
J2VwaWtfcHl0aG9uJywgJy1waCcsICc3LjAnLCAnLXRuJywgJzgnLCAnLW1hJywgJzIwMCcsICctbWV0YWxfYmluZGluZycsICctaW1hZScsICc8aW5maWxlLm1hZT4nLCAnLW9tYWUnLCAnPG91dGZpbGUubWFlPic=

> <r_lp_tautomer_probability>
0.999

> <r_epik_Ionization_Penalty>
0.0100875

> <r_epik_Ionization_Penalty_Charging>
0.0100873

> <r_epik_Ionization_Penalty_Neutral>
1.79075e-07

> <r_epik_State_Penalty>
0.00769562

> <r_epik_Charging_Adjusted_Penalty>
0.017783

> <i_epik_Tot_Q>
0

> <i_epik_Tot_abs_Q>
0

> <r_epik_Metal_State_Penalty>
0.325451

> <b_epik_Metal_Only>
0

> <s_lp_Force_Field>
OPLS_2005

> <r_lp_Energy>
23.697

> <b_lp_Chiralities_Consistent>
1

> <s_lp_Variant>
AV-unprocessed.smi:1776-1

> <Gold.Version>
5.8.1

> <Gold.Id.Protein>
6NUR|6NUR_protein|mol2

> <Gold.PLP.Fitness>
39.8562

> <Gold.PLP.PLP>
-31.5583

> <Gold.PLP.part.hbond>
-3.0000

> <Gold.PLP.part.metal>
0.0000

> <Gold.PLP.part.buried>
-3.6533

> <Gold.PLP.part.nonpolar>
-26.9512

> <Gold.PLP.part.repulsive>
1.8850

> <Gold.PLP.ligand.clash>
0.0000

> <Gold.PLP.ligand.torsion>
0.7277

> <Gold.PLP.Chemscore.Hbond>
2.3326

> <Gold.PLP.Chemscore.CHOScore>
0.9084

> <Gold.PLP.Chemscore.Metal>
0.0000

> <Gold.Chemscore.Hbonds>
donor molecule, donor type, donor heavy atom, donor atom, acceptor molecule, acceptor atom, score
      L1  H    12    21       P1  7957  0.32
      P1  H  7989  7998       L1    14  1.00
      P1  H  7997  8009       L1    17  0.49
      L1  C    11    24       P1 10175  0.39

> <Gold.PLP.Chemscore.Internal.Correction>
0.0303

> <Gold.Rescore>
     Score         DG    S(hbond)    S(metal)    S(lipo)     H(rot)  DE(clash)    DE(int)     intcor
     14.28     -15.47       1.61        0.00      61.39       1.00       0.36       0.83       ----

> <Gold.Chemscore.Fitness>
14.2792

> <Gold.Chemscore.DG>
-15.4673

> <Gold.Chemscore.ZeroCoef>
-5.4800

> <Gold.Chemscore.Hbond>
1.6062

> <Gold.Chemscore.Metal>
0.0000

> <Gold.Chemscore.Lipo>
61.3902

> <Gold.Chemscore.Internal_Hbond>
0.0000

> <Gold.Chemscore.DEClash>
0.3628

> <Gold.Chemscore.DEInternal>
0.8253

> <Gold.Chemscore.Rot>
1.0000

> <Gold.Chemscore.Internal.Correction>
   9.000000E+99

> <Gold.Chemscore.Hbonds>
donor molecule, donor type, donor heavy atom, donor atom, acceptor molecule, acceptor atom, score
      L1  H    12    21       P1  7957  0.32
      P1  H  7989  7998       L1    14  0.78
      P1  H  7997  8009       L1    17  0.03

> <Gold.Chemscore.Hbond.Weighted>
-5.3647

> <Gold.Chemscore.Metal.Weighted>
-0.0000

> <Gold.Chemscore.Lipo.Weighted>
-7.1827

> <Gold.Chemscore.Internal_Hbond.Weighted>
0.0000

> <Gold.Chemscore.DEClash.Weighted>
0.3628

> <Gold.Chemscore.DEInternal.Weighted>
0.8253

> <Gold.Chemscore.Rot.Weighted>
2.5600

> <Gold.Chemscore.Internal.Correction.Weighted>
   9.000000E+99

> <Gold.Protein.RotatedTorsions>
[ 6907 6896 6895 6894 ] final   92.13 input  -60.11 | X-H torsion
[ 7974 7965 7964 7962 ] final  156.54 input  175.53 | X-H torsion
[ 8008 7997 7996 7995 ] final  130.75 input   59.86 | X-H torsion
[ 10167 10162 10161 10158 ] final   11.81 input  -65.29 | X-H torsion
[ 10718 10713 10712 10709 ] final  165.84 input   66.30 | X-H torsion
[ 10763 10752 10751 10750 ] final  -27.67 input  -60.55 | X-H torsion
[ 11005 11000 10999 10996 ] final   45.76 input  -57.11 | X-H torsion

> <Gold.Protein.ActiveResidues>
 VAL166  LYS551  ARG553  GLY616  TRP617  ASP618  TYR619  PRO620  LYS621  CYS622 
 ASP623  PHE694  ASN695  SER759  ASP760  ASP761  ALA762  ILE779  LEU786  VAL792 
 PHE793  MET794  SER795  GLU796  ALA797  LYS798  CYS799  TRP800  GLU811  SER814 

> <Gold.Protein.RotatedAtoms>
  152.5452  134.1550  159.8533 H   0  0  0  0  0  0  0  0  0  0  0  0  # atno 6907 bound_to 6896
  151.1573  133.4861  159.2602 H   0  0  0  0  0  0  0  0  0  0  0  0  # atno 6908 bound_to 6896
  151.1409  135.0190  159.8680 H   0  0  0  0  0  0  0  0  0  0  0  0  # atno 6909 bound_to 6896
  144.7957  139.7217  143.6203 H   0  0  0  0  0  0  0  0  0  0  0  0  # atno 7974 bound_to 7965
  156.2959  140.2588  156.2813 H   0  0  0  0  0  0  0  0  0  0  0  0  # atno 8008 bound_to 7997
  154.9600  140.0393  157.2204 H   0  0  0  0  0  0  0  0  0  0  0  0  # atno 8009 bound_to 7997
  154.7956  140.2819  155.5964 H   0  0  0  0  0  0  0  0  0  0  0  0  # atno 8010 bound_to 7997
  140.6108  143.8411  150.7063 H   0  0  0  0  0  0  0  0  0  0  0  0  # atno 10167 bound_to 10162
  157.0745  131.0375  151.2599 H   0  0  0  0  0  0  0  0  0  0  0  0  # atno 10718 bound_to 10713
  153.7359  135.6935  153.4978 H   0  0  0  0  0  0  0  0  0  0  0  0  # atno 10763 bound_to 10752
  153.2103  135.4405  155.0370 H   0  0  0  0  0  0  0  0  0  0  0  0  # atno 10764 bound_to 10752
  154.8237  135.3435  154.6887 H   0  0  0  0  0  0  0  0  0  0  0  0  # atno 10765 bound_to 10752
  140.1430  134.4558  155.8436 H   0  0  0  0  0  0  0  0  0  0  0  0  # atno 11005 bound_to 11000
  146.2224  139.5660  142.9609 LP  0  0  0  0  0  0  0  0  0  0  0  0  # atno 17320 bound_to 7965
  145.5680  141.0397  143.2190 LP  0  0  0  0  0  0  0  0  0  0  0  0  # atno 17321 bound_to 7965
  140.1979  143.3983  152.1814 LP  0  0  0  0  0  0  0  0  0  0  0  0  # atno 17342 bound_to 10162
  139.5360  144.7209  151.4893 LP  0  0  0  0  0  0  0  0  0  0  0  0  # atno 17343 bound_to 10162
  157.4851  130.7788  149.7452 LP  0  0  0  0  0  0  0  0  0  0  0  0  # atno 17370 bound_to 10713
  155.9941  130.3920  150.2873 LP  0  0  0  0  0  0  0  0  0  0  0  0  # atno 17371 bound_to 10713
  141.2189  133.6841  156.7282 LP  0  0  0  0  0  0  0  0  0  0  0  0  # atno 17394 bound_to 11000
  140.2698  134.8401  157.3836 LP  0  0  0  0  0  0  0  0  0  0  0  0  # atno 17395 bound_to 11000

$$$$
