AV-unprocessed.smi:1079|AV-procd|sdf|4705|dock8
  -GOLD-   22720 3233D 1   1.00000     0.00000
 Structure written by MMmdl.
 43 44  0  0  0  0  0  0  0  0  2 V2000
  144.2697  139.1173  160.5314 C   0  0  0  0  0  0  0  0  0  0  0  0
  144.9963  137.9392  160.2323 O   0  0  0  0  0  0  0  0  0  0  0  0
  145.3616  137.8582  158.8642 C   0  0  0  0  0  0  0  0  0  0  0  0
  145.9619  136.4738  158.5657 C   0  0  0  0  0  0  0  0  0  0  0  0
  147.4415  136.5018  158.5732 N   0  0  0  0  0  0  0  0  0  0  0  0
  148.1533  136.1430  157.3964 C   0  0  0  0  0  0  0  0  0  0  0  0
  147.4434  135.7486  156.2712 N   0  0  0  0  0  0  0  0  0  0  0  0
  149.5137  136.1556  157.3927 C   0  0  0  0  0  0  0  0  0  0  0  0
  150.2607  135.8482  156.2371 N   0  0  0  0  0  0  0  0  0  0  0  0
  150.7541  134.4674  156.1010 C   0  0  0  0  0  0  0  0  0  0  0  0
  149.9534  133.6284  155.1170 C   0  0  0  0  0  0  0  0  0  0  0  0
  149.0944  134.2514  154.1870 C   0  0  0  0  0  0  0  0  0  0  0  0
  148.3571  133.4754  153.2721 C   0  0  0  0  0  0  0  0  0  0  0  0
  148.4724  132.0720  153.2855 C   0  0  0  0  0  0  0  0  0  0  0  0
  149.3254  131.4454  154.2142 C   0  0  0  0  0  0  0  0  0  0  0  0
  150.0637  132.2216  155.1286 C   0  0  0  0  0  0  0  0  0  0  0  0
  150.6233  136.7998  155.3364 C   0  0  0  0  0  0  0  0  0  0  0  0
  150.2374  138.2640  155.5818 C   0  0  0  0  0  0  0  0  0  0  0  0
  151.2866  136.5419  154.3309 O   0  0  0  0  0  0  0  0  0  0  0  0
  150.2206  136.5764  158.6097 C   0  0  0  0  0  0  0  0  0  0  0  0
  151.4498  136.6429  158.6220 O   0  0  0  0  0  0  0  0  0  0  0  0
  149.4726  136.8858  159.7011 N   0  5  0  0  0  0  0  0  0  0  0  0
  148.1100  136.8521  159.7147 C   0  0  0  0  0  0  0  0  0  0  0  0
  147.4673  137.1285  160.7289 O   0  0  0  0  0  0  0  0  0  0  0  0
  144.0153  139.1310  161.5909 H   0  0  0  0  0  0  0  0  0  0  0  0
  143.3414  139.1632  159.9607 H   0  0  0  0  0  0  0  0  0  0  0  0
  144.8592  140.0095  160.3155 H   0  0  0  0  0  0  0  0  0  0  0  0
  144.4763  138.0103  158.2454 H   0  0  0  0  0  0  0  0  0  0  0  0
  146.0709  138.6474  158.6100 H   0  0  0  0  0  0  0  0  0  0  0  0
  145.5569  135.7345  159.2560 H   0  0  0  0  0  0  0  0  0  0  0  0
  145.5998  136.1330  157.5944 H   0  0  0  0  0  0  0  0  0  0  0  0
  146.4345  135.7125  156.2745 H   0  0  0  0  0  0  0  0  0  0  0  0
  147.8835  135.7268  155.3624 H   0  0  0  0  0  0  0  0  0  0  0  0
  151.8076  134.4771  155.8156 H   0  0  0  0  0  0  0  0  0  0  0  0
  150.7213  133.9547  157.0638 H   0  0  0  0  0  0  0  0  0  0  0  0
  148.9989  135.3270  154.1728 H   0  0  0  0  0  0  0  0  0  0  0  0
  147.7038  133.9576  152.5599 H   0  0  0  0  0  0  0  0  0  0  0  0
  147.9068  131.4769  152.5839 H   0  0  0  0  0  0  0  0  0  0  0  0
  149.4156  130.3692  154.2246 H   0  0  0  0  0  0  0  0  0  0  0  0
  150.7197  131.7340  155.8347 H   0  0  0  0  0  0  0  0  0  0  0  0
  150.5014  138.5786  156.5920 H   0  0  0  0  0  0  0  0  0  0  0  0
  149.1680  138.4133  155.4342 H   0  0  0  0  0  0  0  0  0  0  0  0
  150.7625  138.9183  154.8851 H   0  0  0  0  0  0  0  0  0  0  0  0
  1  2  1  0  0  0  0
  1 25  1  0  0  0  0
  1 26  1  0  0  0  0
  1 27  1  0  0  0  0
  2  3  1  0  0  0  0
  3  4  1  0  0  0  0
  3 28  1  0  0  0  0
  3 29  1  0  0  0  0
  4  5  1  0  0  0  0
  4 30  1  0  0  0  0
  4 31  1  0  0  0  0
  5 23  1  0  0  0  0
  5  6  1  0  0  0  0
  6  7  1  0  0  0  0
  6  8  2  0  0  0  0
  7 32  1  0  0  0  0
  7 33  1  0  0  0  0
  8  9  1  0  0  0  0
  8 20  1  0  0  0  0
  9 10  1  0  0  0  0
  9 17  1  0  0  0  0
 10 11  1  0  0  0  0
 10 34  1  0  0  0  0
 10 35  1  0  0  0  0
 11 16  1  0  0  0  0
 11 12  2  0  0  0  0
 12 13  1  0  0  0  0
 12 36  1  0  0  0  0
 13 14  2  0  0  0  0
 13 37  1  0  0  0  0
 14 15  1  0  0  0  0
 14 38  1  0  0  0  0
 15 16  2  0  0  0  0
 15 39  1  0  0  0  0
 16 40  1  0  0  0  0
 17 18  1  0  0  0  0
 17 19  2  0  0  0  0
 18 41  1  0  0  0  0
 18 42  1  0  0  0  0
 18 43  1  0  0  0  0
 20 21  2  0  0  0  0
 20 22  1  0  0  0  0
 22 23  1  0  0  0  0
 23 24  2  0  0  0  0
M  CHG  1  22  -1
M  END
> <s_m_source_file>
AV-unprocessed.smi

> <i_m_source_file_index>
1079

> <i_lp_mmshare_version>
43012

> <i_f3d_flags>
0

> <s_epik_input>
W0NIM11PW0NIMl1bQ0gyXW4xYyhbTkgyXSljKGMoPU8pW25IXWMxPU8pTihDKD1PKVtDSDNdKVtDSDJdYzJbY0hdW2NIXVtjSF1bY0hdW2NIXTI=

> <s_epik_cmdline>
J2VwaWtfcHl0aG9uJywgJy1waCcsICc3LjAnLCAnLXRuJywgJzgnLCAnLW1hJywgJzIwMCcsICctbWV0YWxfYmluZGluZycsICctaW1hZScsICc8aW5maWxlLm1hZT4nLCAnLW9tYWUnLCAnPG91dGZpbGUubWFlPic=

> <r_lp_tautomer_probability>
1

> <r_epik_Ionization_Penalty>
7.02899

> <r_epik_Ionization_Penalty_Charging>
0.353543

> <r_epik_Ionization_Penalty_Neutral>
6.67545

> <r_epik_State_Penalty>
6.67544

> <r_epik_Charging_Adjusted_Penalty>
7.02899

> <i_epik_Tot_Q>
-1

> <i_epik_Tot_abs_Q>
1

> <r_epik_Metal_State_Penalty>
2.59023

> <b_epik_Metal_Only>
1

> <s_epik_Chemistry_Notes>
This compound has an imine and may undergo hydrolysis.

> <s_lp_Force_Field>
OPLS_2005

> <r_lp_Energy>
37.6248

> <b_lp_Chiralities_Consistent>
1

> <s_lp_Variant>
AV-unprocessed.smi:1079-2

> <Gold.Version>
5.8.1

> <Gold.Id.Protein>
6NUR|6NUR_protein|mol2

> <Gold.PLP.Fitness>
35.6081

> <Gold.PLP.PLP>
-29.6775

> <Gold.PLP.part.hbond>
-5.2145

> <Gold.PLP.part.metal>
0.0000

> <Gold.PLP.part.buried>
-2.6326

> <Gold.PLP.part.nonpolar>
-22.2828

> <Gold.PLP.part.repulsive>
1.0598

> <Gold.PLP.ligand.clash>
0.0000

> <Gold.PLP.ligand.torsion>
2.2740

> <Gold.PLP.Chemscore.Hbond>
2.7760

> <Gold.PLP.Chemscore.CHOScore>
0.0000

> <Gold.PLP.Chemscore.Metal>
0.0000

> <Gold.Chemscore.Hbonds>
donor molecule, donor type, donor heavy atom, donor atom, acceptor molecule, acceptor atom, score
      P1  H  6931  6943       L1    24  0.36
      P1  H  6934  6947       L1    24  1.00
      P1  H 10752 10763       L1    19  1.00

> <Gold.PLP.Chemscore.Internal.Correction>
2.1505

> <Gold.Rescore>
     Score         DG    S(hbond)    S(metal)    S(lipo)     H(rot)  DE(clash)    DE(int)     intcor
      7.32     -13.42       2.21        0.00      48.03       1.98       1.03       5.07       ----

> <Gold.Chemscore.Fitness>
7.3234

> <Gold.Chemscore.DG>
-13.4213

> <Gold.Chemscore.ZeroCoef>
-5.4800

> <Gold.Chemscore.Hbond>
2.2144

> <Gold.Chemscore.Metal>
0.0000

> <Gold.Chemscore.Lipo>
48.0344

> <Gold.Chemscore.Internal_Hbond>
0.0000

> <Gold.Chemscore.DEClash>
1.0267

> <Gold.Chemscore.DEInternal>
5.0712

> <Gold.Chemscore.Rot>
1.9824

> <Gold.Chemscore.Internal.Correction>
   9.000000E+99

> <Gold.Chemscore.Hbonds>
donor molecule, donor type, donor heavy atom, donor atom, acceptor molecule, acceptor atom, score
      P1  H  6931  6943       L1    24  0.09
      P1  H  6934  6947       L1    24  0.79
      P1  H 10752 10763       L1    19  1.00

> <Gold.Chemscore.Hbond.Weighted>
-7.3962

> <Gold.Chemscore.Metal.Weighted>
-0.0000

> <Gold.Chemscore.Lipo.Weighted>
-5.6200

> <Gold.Chemscore.Internal_Hbond.Weighted>
0.0000

> <Gold.Chemscore.DEClash.Weighted>
1.0267

> <Gold.Chemscore.DEInternal.Weighted>
5.0712

> <Gold.Chemscore.Rot.Weighted>
5.0749

> <Gold.Chemscore.Internal.Correction.Weighted>
   9.000000E+99

> <Gold.Protein.RotatedTorsions>
[ 6907 6896 6895 6894 ] final  -25.86 input  -60.11 | X-H torsion
[ 7974 7965 7964 7962 ] final   30.51 input  175.53 | X-H torsion
[ 8008 7997 7996 7995 ] final   29.84 input   59.86 | X-H torsion
[ 10167 10162 10161 10158 ] final  -97.84 input  -65.29 | X-H torsion
[ 10718 10713 10712 10709 ] final  -60.41 input   66.30 | X-H torsion
[ 10763 10752 10751 10750 ] final   47.18 input  -60.55 | X-H torsion
[ 11005 11000 10999 10996 ] final  -52.26 input  -57.11 | X-H torsion

> <Gold.Protein.ActiveResidues>
 VAL166  LYS551  ARG553  GLY616  TRP617  ASP618  TYR619  PRO620  LYS621  CYS622 
 ASP623  PHE694  ASN695  SER759  ASP760  ASP761  ALA762  ILE779  LEU786  VAL792 
 PHE793  MET794  SER795  GLU796  ALA797  LYS798  CYS799  TRP800  GLU811  SER814 

> <Gold.Protein.RotatedAtoms>
  151.1692  135.0310  159.8744 H   0  0  0  0  0  0  0  0  0  0  0  0  # atno 6907 bound_to 6896
  152.5449  134.1190  159.8401 H   0  0  0  0  0  0  0  0  0  0  0  0  # atno 6908 bound_to 6896
  151.1294  133.5001  159.2632 H   0  0  0  0  0  0  0  0  0  0  0  0  # atno 6909 bound_to 6896
  146.1607  139.6779  142.9035 H   0  0  0  0  0  0  0  0  0  0  0  0  # atno 7974 bound_to 7965
  155.0810  140.3210  155.4601 H   0  0  0  0  0  0  0  0  0  0  0  0  # atno 8008 bound_to 7997
  156.2767  140.2095  156.5883 H   0  0  0  0  0  0  0  0  0  0  0  0  # atno 8009 bound_to 7997
  154.6979  140.0510  157.0416 H   0  0  0  0  0  0  0  0  0  0  0  0  # atno 8010 bound_to 7997
  140.2792  143.3293  152.0458 H   0  0  0  0  0  0  0  0  0  0  0  0  # atno 10167 bound_to 10162
  156.0993  130.4188  150.0850 H   0  0  0  0  0  0  0  0  0  0  0  0  # atno 10718 bound_to 10713
  152.9802  135.5984  154.3721 H   0  0  0  0  0  0  0  0  0  0  0  0  # atno 10763 bound_to 10752
  154.3393  135.2768  155.2433 H   0  0  0  0  0  0  0  0  0  0  0  0  # atno 10764 bound_to 10752
  154.4521  135.5987  153.6254 H   0  0  0  0  0  0  0  0  0  0  0  0  # atno 10765 bound_to 10752
  141.0915  133.6632  156.3998 H   0  0  0  0  0  0  0  0  0  0  0  0  # atno 11005 bound_to 11000
  145.4595  141.0432  143.2759 LP  0  0  0  0  0  0  0  0  0  0  0  0  # atno 17320 bound_to 7965
  144.8023  139.6117  143.7066 LP  0  0  0  0  0  0  0  0  0  0  0  0  # atno 17321 bound_to 7965
  139.4967  144.6603  151.6479 LP  0  0  0  0  0  0  0  0  0  0  0  0  # atno 17342 bound_to 10162
  140.5825  143.9920  150.6277 LP  0  0  0  0  0  0  0  0  0  0  0  0  # atno 17343 bound_to 10162
  156.8841  130.9566  151.3596 LP  0  0  0  0  0  0  0  0  0  0  0  0  # atno 17370 bound_to 10713
  157.6160  130.8619  149.9029 LP  0  0  0  0  0  0  0  0  0  0  0  0  # atno 17371 bound_to 10713
  140.5241  134.6276  157.5328 LP  0  0  0  0  0  0  0  0  0  0  0  0  # atno 17394 bound_to 11000
  139.9742  134.7243  155.9983 LP  0  0  0  0  0  0  0  0  0  0  0  0  # atno 17395 bound_to 11000

$$$$
