AV-unprocessed.smi:1550|AV-procd|sdf|6227|dock8
  -GOLD-   22720 6403D 1   1.00000     0.00000
 Structure written by MMmdl.
 43 44  0  0  0  0  0  0  0  0  1 V2000
  150.3017  139.2217  154.4802 C   0  0  0  0  0  0  0  0  0  0  0  0
  149.7068  140.1070  155.5852 C   0  0  1  0  0  0  0  0  0  0  0  0
  150.7887  140.7828  156.2199 O   0  0  0  0  0  0  0  0  0  0  0  0
  150.4258  141.9054  157.0159 C   0  0  0  0  0  0  0  0  0  0  0  0
  151.6577  142.3654  157.8053 C   0  0  1  0  0  0  0  0  0  0  0  0
  151.5991  143.8694  158.1369 C   0  0  0  0  0  0  0  0  0  0  0  0
  152.8028  144.2785  158.9936 C   0  0  0  0  0  0  0  0  0  0  0  0
  152.8973  143.3683  160.2226 C   0  0  0  0  0  0  0  0  0  0  0  0
  152.8741  141.8917  159.7972 C   0  0  0  0  0  0  0  0  0  0  0  0
  151.7066  141.6280  159.0251 O   0  0  0  0  0  0  0  0  0  0  0  0
  148.7104  141.1262  155.0095 C   0  0  0  0  0  0  0  0  0  0  0  0
  148.9865  141.7216  153.9679 O   0  0  0  0  0  0  0  0  0  0  0  0
  147.5749  141.2920  155.7162 N   0  0  0  0  0  0  0  0  0  0  0  0
  146.5183  142.1895  155.4914 C   0  0  0  0  0  0  0  0  0  0  0  0
  145.8671  142.8737  156.4681 C   0  0  0  0  0  0  0  0  0  0  0  0
  144.7653  143.7756  156.1727 C   0  0  0  0  0  0  0  0  0  0  0  0
  144.0328  144.5530  157.2551 C   0  0  0  0  0  0  0  0  0  0  0  0
  142.7497  144.1950  157.2899 F   0  0  0  0  0  0  0  0  0  0  0  0
  144.5645  144.2911  158.4490 F   0  0  0  0  0  0  0  0  0  0  0  0
  144.0962  145.8684  157.0474 F   0  0  0  0  0  0  0  0  0  0  0  0
  144.4138  143.8905  154.8795 C   0  0  0  0  0  0  0  0  0  0  0  0
  145.0712  143.1821  153.8711 N   0  0  0  0  0  0  0  0  0  0  0  0
  146.1004  142.3323  154.0870 C   0  0  0  0  0  0  0  0  0  0  0  0
  146.6251  141.7398  153.1448 O   0  0  0  0  0  0  0  0  0  0  0  0
  144.7455  143.3210  152.9251 H   0  0  0  0  0  0  0  0  0  0  0  0
  149.5218  138.6796  153.9442 H   0  0  0  0  0  0  0  0  0  0  0  0
  150.9840  138.4837  154.9031 H   0  0  0  0  0  0  0  0  0  0  0  0
  150.8639  139.8086  153.7527 H   0  0  0  0  0  0  0  0  0  0  0  0
  149.2068  139.4611  156.3100 H   0  0  0  0  0  0  0  0  0  0  0  0
  150.0829  142.7218  156.3791 H   0  0  0  0  0  0  0  0  0  0  0  0
  149.6081  141.6528  157.6926 H   0  0  0  0  0  0  0  0  0  0  0  0
  152.5522  142.1602  157.2140 H   0  0  0  0  0  0  0  0  0  0  0  0
  151.5777  144.4597  157.2203 H   0  0  0  0  0  0  0  0  0  0  0  0
  150.6762  144.0922  158.6741 H   0  0  0  0  0  0  0  0  0  0  0  0
  153.7167  144.1957  158.4040 H   0  0  0  0  0  0  0  0  0  0  0  0
  152.7179  145.3221  159.2973 H   0  0  0  0  0  0  0  0  0  0  0  0
  153.8061  143.5856  160.7846 H   0  0  0  0  0  0  0  0  0  0  0  0
  152.0594  143.5673  160.8919 H   0  0  0  0  0  0  0  0  0  0  0  0
  153.7670  141.6369  159.2242 H   0  0  0  0  0  0  0  0  0  0  0  0
  152.8671  141.2483  160.6771 H   0  0  0  0  0  0  0  0  0  0  0  0
  147.4397  140.6682  156.4991 H   0  0  0  0  0  0  0  0  0  0  0  0
  146.1411  142.7443  157.5025 H   0  0  0  0  0  0  0  0  0  0  0  0
  143.6137  144.5235  154.5246 H   0  0  0  0  0  0  0  0  0  0  0  0
  1  2  1  0  0  0  0
  1 26  1  0  0  0  0
  1 27  1  0  0  0  0
  1 28  1  0  0  0  0
  2  3  1  0  0  0  0
  2 11  1  0  0  0  0
  2 29  1  0  0  0  0
  3  4  1  0  0  0  0
  4  5  1  0  0  0  0
  4 30  1  0  0  0  0
  4 31  1  0  0  0  0
  5 10  1  0  0  0  0
  5  6  1  0  0  0  0
  5 32  1  0  0  0  0
  6  7  1  0  0  0  0
  6 33  1  0  0  0  0
  6 34  1  0  0  0  0
  7  8  1  0  0  0  0
  7 35  1  0  0  0  0
  7 36  1  0  0  0  0
  8  9  1  0  0  0  0
  8 37  1  0  0  0  0
  8 38  1  0  0  0  0
  9 10  1  0  0  0  0
  9 39  1  0  0  0  0
  9 40  1  0  0  0  0
 11 12  2  0  0  0  0
 11 13  1  0  0  0  0
 13 14  1  0  0  0  0
 13 41  1  0  0  0  0
 14 23  1  0  0  0  0
 14 15  2  0  0  0  0
 15 16  1  0  0  0  0
 15 42  1  0  0  0  0
 16 17  1  0  0  0  0
 16 21  2  0  0  0  0
 17 18  1  0  0  0  0
 17 19  1  0  0  0  0
 17 20  1  0  0  0  0
 21 22  1  0  0  0  0
 21 43  1  0  0  0  0
 22 25  1  0  0  0  0
 22 23  1  0  0  0  0
 23 24  2  0  0  0  0
M  END
> <s_m_source_file>
AV-unprocessed.smi

> <i_m_source_file_index>
1550

> <i_lp_mmshare_version>
43012

> <i_f3d_flags>
0

> <s_epik_input>
TzFbQ0gyXVtDSDJdW0NIMl1bQ0gyXVtDQEhdMVtDSDJdT1tDQEBIXShbQ0gzXSlDKD1PKVtOSF1jMltjSF1jKEMoRikoRilGKVtjSF1bbkhdYzI9Tw==

> <s_epik_cmdline>
J2VwaWtfcHl0aG9uJywgJy1waCcsICc3LjAnLCAnLXRuJywgJzgnLCAnLW1hJywgJzIwMCcsICctbWV0YWxfYmluZGluZycsICctaW1hZScsICc8aW5maWxlLm1hZT4nLCAnLW9tYWUnLCAnPG91dGZpbGUubWFlPic=

> <r_lp_tautomer_probability>
0.999

> <r_epik_Ionization_Penalty>
0.00891333

> <r_epik_Ionization_Penalty_Charging>
0.00891323

> <r_epik_Ionization_Penalty_Neutral>
1.00146e-07

> <r_epik_State_Penalty>
0.00674197

> <r_epik_Charging_Adjusted_Penalty>
0.0156552

> <i_epik_Tot_Q>
0

> <i_epik_Tot_abs_Q>
0

> <r_epik_Metal_State_Penalty>
0.321024

> <b_epik_Metal_Only>
0

> <s_lp_Force_Field>
OPLS_2005

> <r_lp_Energy>
24.886

> <b_lp_Chiralities_Consistent>
1

> <s_lp_Variant>
AV-unprocessed.smi:1550-4

> <Gold.Version>
5.8.1

> <Gold.Id.Protein>
6NUR|6NUR_protein|mol2

> <Gold.PLP.Fitness>
41.4981

> <Gold.PLP.PLP>
-42.0359

> <Gold.PLP.part.hbond>
-3.0879

> <Gold.PLP.part.metal>
0.0000

> <Gold.PLP.part.buried>
-2.7164

> <Gold.PLP.part.nonpolar>
-36.1184

> <Gold.PLP.part.repulsive>
0.5485

> <Gold.PLP.ligand.clash>
0.0000

> <Gold.PLP.ligand.torsion>
1.2686

> <Gold.PLP.Chemscore.Hbond>
0.6400

> <Gold.PLP.Chemscore.CHOScore>
0.0000

> <Gold.PLP.Chemscore.Metal>
0.0000

> <Gold.Chemscore.Hbonds>
donor molecule, donor type, donor heavy atom, donor atom, acceptor molecule, acceptor atom, score
      L1  H    22    25       P1 10174  0.02
      P1  H  8011  8017       L1    12  0.58

> <Gold.PLP.Chemscore.Internal.Correction>
0.0795

> <Gold.Rescore>
     Score         DG    S(hbond)    S(metal)    S(lipo)     H(rot)  DE(clash)    DE(int)     intcor
      7.82     -14.28       0.58        0.00      99.31       1.86       1.45       5.02       ----

> <Gold.Chemscore.Fitness>
7.8151

> <Gold.Chemscore.DG>
-14.2826

> <Gold.Chemscore.ZeroCoef>
-5.4800

> <Gold.Chemscore.Hbond>
0.5800

> <Gold.Chemscore.Metal>
0.0000

> <Gold.Chemscore.Lipo>
99.3117

> <Gold.Chemscore.Internal_Hbond>
0.0000

> <Gold.Chemscore.DEClash>
1.4482

> <Gold.Chemscore.DEInternal>
5.0192

> <Gold.Chemscore.Rot>
1.8571

> <Gold.Chemscore.Internal.Correction>
   9.000000E+99

> <Gold.Chemscore.Hbonds>
donor molecule, donor type, donor heavy atom, donor atom, acceptor molecule, acceptor atom, score
      P1  H  8011  8017       L1    12  0.57

> <Gold.Chemscore.Hbond.Weighted>
-1.9372

> <Gold.Chemscore.Metal.Weighted>
-0.0000

> <Gold.Chemscore.Lipo.Weighted>
-11.6195

> <Gold.Chemscore.Internal_Hbond.Weighted>
0.0000

> <Gold.Chemscore.DEClash.Weighted>
1.4482

> <Gold.Chemscore.DEInternal.Weighted>
5.0192

> <Gold.Chemscore.Rot.Weighted>
4.7541

> <Gold.Chemscore.Internal.Correction.Weighted>
   9.000000E+99

> <Gold.Protein.RotatedTorsions>
[ 6907 6896 6895 6894 ] final  136.43 input  -60.11 | X-H torsion
[ 7974 7965 7964 7962 ] final   69.62 input  175.53 | X-H torsion
[ 8008 7997 7996 7995 ] final -145.73 input   59.86 | X-H torsion
[ 10167 10162 10161 10158 ] final  -45.39 input  -65.29 | X-H torsion
[ 10718 10713 10712 10709 ] final  -99.98 input   66.30 | X-H torsion
[ 10763 10752 10751 10750 ] final  -40.17 input  -60.55 | X-H torsion
[ 11005 11000 10999 10996 ] final -143.51 input  -57.11 | X-H torsion

> <Gold.Protein.ActiveResidues>
 VAL166  LYS551  ARG553  GLY616  TRP617  ASP618  TYR619  PRO620  LYS621  CYS622 
 ASP623  PHE694  ASN695  SER759  ASP760  ASP761  ALA762  ILE779  LEU786  VAL792 
 PHE793  MET794  SER795  GLU796  ALA797  LYS798  CYS799  TRP800  GLU811  SER814 

> <Gold.Protein.RotatedAtoms>
  152.2895  133.5547  159.5547 H   0  0  0  0  0  0  0  0  0  0  0  0  # atno 6907 bound_to 6896
  150.7229  134.0449  159.3787 H   0  0  0  0  0  0  0  0  0  0  0  0  # atno 6908 bound_to 6896
  151.8356  135.0607  160.0493 H   0  0  0  0  0  0  0  0  0  0  0  0  # atno 6909 bound_to 6896
  145.7882  139.2921  143.1226 H   0  0  0  0  0  0  0  0  0  0  0  0  # atno 7974 bound_to 7965
  155.5479  140.0614  157.2856 H   0  0  0  0  0  0  0  0  0  0  0  0  # atno 8008 bound_to 7997
  154.4430  140.1907  156.0701 H   0  0  0  0  0  0  0  0  0  0  0  0  # atno 8009 bound_to 7997
  156.0537  140.3281  155.7385 H   0  0  0  0  0  0  0  0  0  0  0  0  # atno 8010 bound_to 7997
  140.6860  143.2882  151.3632 H   0  0  0  0  0  0  0  0  0  0  0  0  # atno 10167 bound_to 10162
  156.0149  130.5307  150.6750 H   0  0  0  0  0  0  0  0  0  0  0  0  # atno 10718 bound_to 10713
  153.9414  135.6761  153.4744 H   0  0  0  0  0  0  0  0  0  0  0  0  # atno 10763 bound_to 10752
  153.0929  135.4865  154.8721 H   0  0  0  0  0  0  0  0  0  0  0  0  # atno 10764 bound_to 10752
  154.7375  135.3152  154.8745 H   0  0  0  0  0  0  0  0  0  0  0  0  # atno 10765 bound_to 10752
  140.8118  134.2735  157.4937 H   0  0  0  0  0  0  0  0  0  0  0  0  # atno 11005 bound_to 11000
  146.0004  140.8525  143.0021 LP  0  0  0  0  0  0  0  0  0  0  0  0  # atno 17320 bound_to 7965
  144.6786  140.2344  143.7351 LP  0  0  0  0  0  0  0  0  0  0  0  0  # atno 17321 bound_to 7965
  139.6218  144.0891  152.2398 LP  0  0  0  0  0  0  0  0  0  0  0  0  # atno 17342 bound_to 10162
  140.0338  144.6060  150.7466 LP  0  0  0  0  0  0  0  0  0  0  0  0  # atno 17343 bound_to 10162
  157.4465  131.0867  151.0890 LP  0  0  0  0  0  0  0  0  0  0  0  0  # atno 17370 bound_to 10713
  157.1419  130.6146  149.5557 LP  0  0  0  0  0  0  0  0  0  0  0  0  # atno 17371 bound_to 10713
  139.8713  134.9487  156.4005 LP  0  0  0  0  0  0  0  0  0  0  0  0  # atno 17394 bound_to 11000
  140.9190  133.7658  155.9883 LP  0  0  0  0  0  0  0  0  0  0  0  0  # atno 17395 bound_to 11000

$$$$
