AV-unprocessed.smi:2782|AV-procd|sdf|10722|dock10
  -GOLD-   2272015163D 1   1.00000     0.00000
 Structure written by MMmdl.
 38 39  0  0  0  0  0  0  0  0  1 V2000
  151.9165  143.7086  157.4702 C   0  0  0  0  0  0  0  0  0  0  0  0
  152.1434  143.6005  158.9641 C   0  0  0  0  0  0  0  0  0  0  0  0
  151.5348  144.5255  159.8341 C   0  0  0  0  0  0  0  0  0  0  0  0
  151.7383  144.4227  161.2219 C   0  0  0  0  0  0  0  0  0  0  0  0
  152.5520  143.3991  161.7441 C   0  0  0  0  0  0  0  0  0  0  0  0
  152.7771  143.2926  163.4532 Cl  0  0  0  0  0  0  0  0  0  0  0  0
  153.1771  142.4686  160.8845 C   0  0  0  0  0  0  0  0  0  0  0  0
  153.9716  141.5038  161.4670 O   0  0  0  0  0  0  0  0  0  0  0  0
  154.2392  140.3102  160.7421 C   0  0  0  0  0  0  0  0  0  0  0  0
  155.4541  139.6012  161.3686 C   0  0  1  0  0  0  0  0  0  0  0  0
  156.5163  140.5290  161.4543 O   0  0  0  0  0  0  0  0  0  0  0  0
  155.1924  139.0398  162.7855 C   0  0  0  0  0  0  0  0  0  0  0  0
  154.9125  137.5987  162.7887 N   0  0  0  0  0  0  0  0  0  0  0  0
  155.0579  136.9896  161.5529 N   0  0  0  0  0  0  0  0  0  0  0  0
  154.8722  135.7187  161.4100 C   0  0  0  0  0  0  0  0  0  0  0  0
  155.0894  135.1354  160.0459 C   0  0  0  0  0  0  0  0  0  0  0  0
  154.4748  134.9222  162.5549 C   0  0  0  0  0  0  0  0  0  0  0  0
  154.3317  135.5188  163.7578 C   0  0  0  0  0  0  0  0  0  0  0  0
  154.5647  136.9501  163.9384 C   0  0  0  0  0  0  0  0  0  0  0  0
  154.4607  137.5194  165.0245 O   0  0  0  0  0  0  0  0  0  0  0  0
  152.9574  142.5746  159.4873 C   0  0  0  0  0  0  0  0  0  0  0  0
  151.9414  144.7516  157.1532 H   0  0  0  0  0  0  0  0  0  0  0  0
  150.9442  143.2920  157.2065 H   0  0  0  0  0  0  0  0  0  0  0  0
  152.6836  143.1689  156.9139 H   0  0  0  0  0  0  0  0  0  0  0  0
  150.9086  145.3128  159.4405 H   0  0  0  0  0  0  0  0  0  0  0  0
  151.2672  145.1312  161.8877 H   0  0  0  0  0  0  0  0  0  0  0  0
  153.3562  139.6711  160.8003 H   0  0  0  0  0  0  0  0  0  0  0  0
  154.4411  140.5112  159.6888 H   0  0  0  0  0  0  0  0  0  0  0  0
  155.7873  138.8028  160.7047 H   0  0  0  0  0  0  0  0  0  0  0  0
  156.2570  141.2314  162.0306 H   0  0  0  0  0  0  0  0  0  0  0  0
  156.0489  139.2464  163.4302 H   0  0  0  0  0  0  0  0  0  0  0  0
  154.3581  139.5760  163.2422 H   0  0  0  0  0  0  0  0  0  0  0  0
  154.3737  135.5422  159.3310 H   0  0  0  0  0  0  0  0  0  0  0  0
  154.9734  134.0514  160.0577 H   0  0  0  0  0  0  0  0  0  0  0  0
  156.0944  135.3584  159.6853 H   0  0  0  0  0  0  0  0  0  0  0  0
  154.3018  133.8624  162.4390 H   0  0  0  0  0  0  0  0  0  0  0  0
  154.0398  134.9239  164.6107 H   0  0  0  0  0  0  0  0  0  0  0  0
  153.4031  141.8754  158.7964 H   0  0  0  0  0  0  0  0  0  0  0  0
  1  2  1  0  0  0  0
  1 22  1  0  0  0  0
  1 23  1  0  0  0  0
  1 24  1  0  0  0  0
  2 21  1  0  0  0  0
  2  3  2  0  0  0  0
  3  4  1  0  0  0  0
  3 25  1  0  0  0  0
  4  5  2  0  0  0  0
  4 26  1  0  0  0  0
  5  6  1  0  0  0  0
  5  7  1  0  0  0  0
  7  8  1  0  0  0  0
  7 21  2  0  0  0  0
  8  9  1  0  0  0  0
  9 10  1  0  0  0  0
  9 27  1  0  0  0  0
  9 28  1  0  0  0  0
 10 11  1  0  0  0  0
 10 12  1  0  0  0  0
 10 29  1  0  0  0  0
 11 30  1  0  0  0  0
 12 13  1  0  0  0  0
 12 31  1  0  0  0  0
 12 32  1  0  0  0  0
 13 19  1  0  0  0  0
 13 14  1  0  0  0  0
 14 15  2  0  0  0  0
 15 16  1  0  0  0  0
 15 17  1  0  0  0  0
 16 33  1  0  0  0  0
 16 34  1  0  0  0  0
 16 35  1  0  0  0  0
 17 18  2  0  0  0  0
 17 36  1  0  0  0  0
 18 19  1  0  0  0  0
 18 37  1  0  0  0  0
 19 20  2  0  0  0  0
 21 38  1  0  0  0  0
M  END
> <s_m_source_file>
AV-unprocessed.smi

> <i_m_source_file_index>
2782

> <i_lp_mmshare_version>
43012

> <i_f3d_flags>
0

> <s_epik_input>
W0NIM11jMVtjSF1bY0hdYyhDbCljKFtjSF0xKU9bQ0gyXVtDQEhdKFtPSF0pW0NIMl1uMm5jKFtDSDNdKVtjSF1bY0hdYzI9Tw==

> <s_epik_cmdline>
J2VwaWtfcHl0aG9uJywgJy1waCcsICc3LjAnLCAnLXRuJywgJzgnLCAnLW1hJywgJzIwMCcsICctbWV0YWxfYmluZGluZycsICctaW1hZScsICc8aW5maWxlLm1hZT4nLCAnLW9tYWUnLCAnPG91dGZpbGUubWFlPic=

> <r_lp_tautomer_probability>
1

> <r_epik_Ionization_Penalty>
2.96353e-07

> <r_epik_Ionization_Penalty_Charging>
1.79179e-07

> <r_epik_Ionization_Penalty_Neutral>
1.17174e-07

> <r_epik_State_Penalty>
-0

> <r_epik_Charging_Adjusted_Penalty>
1.79179e-07

> <i_epik_Tot_Q>
0

> <i_epik_Tot_abs_Q>
0

> <r_epik_Metal_State_Penalty>
-0

> <b_epik_Metal_Only>
0

> <s_lp_Force_Field>
OPLS_2005

> <r_lp_Energy>
25.2407

> <b_lp_Chiralities_Consistent>
1

> <s_lp_Variant>
AV-unprocessed.smi:2782-2

> <Gold.Version>
5.8.1

> <Gold.Id.Protein>
6NUR|6NUR_protein|mol2

> <Gold.PLP.Fitness>
45.7256

> <Gold.PLP.PLP>
-47.6980

> <Gold.PLP.part.hbond>
-1.4813

> <Gold.PLP.part.metal>
0.0000

> <Gold.PLP.part.buried>
-4.6396

> <Gold.PLP.part.nonpolar>
-41.1524

> <Gold.PLP.part.repulsive>
0.0992

> <Gold.PLP.ligand.clash>
0.0000

> <Gold.PLP.ligand.torsion>
0.9924

> <Gold.PLP.Chemscore.Hbond>
0.0000

> <Gold.PLP.Chemscore.CHOScore>
0.0000

> <Gold.PLP.Chemscore.Metal>
0.0000

> <Gold.PLP.Chemscore.Internal.Correction>
0.0123

> <Gold.Rescore>
     Score         DG    S(hbond)    S(metal)    S(lipo)     H(rot)  DE(clash)    DE(int)     intcor
     14.12     -15.59       0.00        0.00     134.95       2.22       0.48       0.99       ----

> <Gold.Chemscore.Fitness>
14.1161

> <Gold.Chemscore.DG>
-15.5857

> <Gold.Chemscore.ZeroCoef>
-5.4800

> <Gold.Chemscore.Hbond>
0.0000

> <Gold.Chemscore.Metal>
0.0000

> <Gold.Chemscore.Lipo>
134.9454

> <Gold.Chemscore.Internal_Hbond>
0.0000

> <Gold.Chemscore.DEClash>
0.4780

> <Gold.Chemscore.DEInternal>
0.9916

> <Gold.Chemscore.Rot>
2.2199

> <Gold.Chemscore.Internal.Correction>
   9.000000E+99

> <Gold.Chemscore.Hbond.Weighted>
-0.0000

> <Gold.Chemscore.Metal.Weighted>
-0.0000

> <Gold.Chemscore.Lipo.Weighted>
-15.7886

> <Gold.Chemscore.Internal_Hbond.Weighted>
0.0000

> <Gold.Chemscore.DEClash.Weighted>
0.4780

> <Gold.Chemscore.DEInternal.Weighted>
0.9916

> <Gold.Chemscore.Rot.Weighted>
5.6829

> <Gold.Chemscore.Internal.Correction.Weighted>
   9.000000E+99

> <Gold.Protein.RotatedTorsions>
[ 6907 6896 6895 6894 ] final -166.09 input  -60.11 | X-H torsion
[ 7974 7965 7964 7962 ] final -164.21 input  175.53 | X-H torsion
[ 8008 7997 7996 7995 ] final   21.63 input   59.86 | X-H torsion
[ 10167 10162 10161 10158 ] final -171.38 input  -65.29 | X-H torsion
[ 10718 10713 10712 10709 ] final -131.04 input   66.30 | X-H torsion
[ 10763 10752 10751 10750 ] final -167.95 input  -60.55 | X-H torsion
[ 11005 11000 10999 10996 ] final  136.02 input  -57.11 | X-H torsion

> <Gold.Protein.ActiveResidues>
 VAL166  LYS551  ARG553  GLY616  TRP617  ASP618  TYR619  PRO620  LYS621  CYS622 
 ASP623  PHE694  ASN695  SER759  ASP760  ASP761  ALA762  ILE779  LEU786  VAL792 
 PHE793  MET794  SER795  GLU796  ALA797  LYS798  CYS799  TRP800  GLU811  SER814 

> <Gold.Protein.RotatedAtoms>
  151.4380  133.3651  159.2777 H   0  0  0  0  0  0  0  0  0  0  0  0  # atno 6907 bound_to 6896
  150.9177  134.8597  159.7479 H   0  0  0  0  0  0  0  0  0  0  0  0  # atno 6908 bound_to 6896
  152.4966  134.4315  159.9566 H   0  0  0  0  0  0  0  0  0  0  0  0  # atno 6909 bound_to 6896
  144.7303  140.2994  143.6207 H   0  0  0  0  0  0  0  0  0  0  0  0  # atno 7974 bound_to 7965
  154.9535  140.3069  155.5064 H   0  0  0  0  0  0  0  0  0  0  0  0  # atno 8008 bound_to 7997
  156.2984  140.2314  156.4552 H   0  0  0  0  0  0  0  0  0  0  0  0  # atno 8009 bound_to 7997
  154.8032  140.0433  157.1277 H   0  0  0  0  0  0  0  0  0  0  0  0  # atno 8010 bound_to 7997
  139.5805  144.1433  152.1509 H   0  0  0  0  0  0  0  0  0  0  0  0  # atno 10167 bound_to 10162
  156.2205  130.6975  151.0750 H   0  0  0  0  0  0  0  0  0  0  0  0  # atno 10718 bound_to 10713
  154.6679  135.2935  154.9781 H   0  0  0  0  0  0  0  0  0  0  0  0  # atno 10763 bound_to 10752
  154.0818  135.6603  153.4843 H   0  0  0  0  0  0  0  0  0  0  0  0  # atno 10764 bound_to 10752
  153.0468  135.5199  154.7661 H   0  0  0  0  0  0  0  0  0  0  0  0  # atno 10765 bound_to 10752
  140.0018  134.9475  157.0088 H   0  0  0  0  0  0  0  0  0  0  0  0  # atno 11005 bound_to 11000
  145.7776  139.1879  143.2176 LP  0  0  0  0  0  0  0  0  0  0  0  0  # atno 17320 bound_to 7965
  146.0860  140.7710  142.9618 LP  0  0  0  0  0  0  0  0  0  0  0  0  # atno 17321 bound_to 7965
  140.0985  144.5559  150.7005 LP  0  0  0  0  0  0  0  0  0  0  0  0  # atno 17342 bound_to 10162
  140.7084  143.2486  151.4656 LP  0  0  0  0  0  0  0  0  0  0  0  0  # atno 17343 bound_to 10162
  157.7085  131.0745  150.6584 LP  0  0  0  0  0  0  0  0  0  0  0  0  # atno 17370 bound_to 10713
  156.6647  130.4522  149.5676 LP  0  0  0  0  0  0  0  0  0  0  0  0  # atno 17371 bound_to 10713
  140.4714  134.1382  155.7203 LP  0  0  0  0  0  0  0  0  0  0  0  0  # atno 17394 bound_to 11000
  141.1647  133.8725  157.1748 LP  0  0  0  0  0  0  0  0  0  0  0  0  # atno 17395 bound_to 11000

$$$$
