#       Name:                AV-unprocessed.smi:3025
#       Creating user name   scv26
#       Creation time:       Fri Mar 27 16:44:56 2020


#       File generated by GOLD software.
#

@<TRIPOS>MOLECULE
AV-unprocessed.smi:3025
    44    45     1
SMALL
NO_CHARGES


@<TRIPOS>ATOM
      1 ****        -5.5774  -2.3726   1.2470 C.3            1 S1                 0.0000
      2 ****        -4.0647  -2.1271   1.2783 C.3            1 S1                 0.0000
      3 ****        -3.5230  -1.6229  -0.0702 C.3            1 S1                 0.0000
      4 ****        -1.9893  -1.4625  -0.1155 C.3            1 S1                 0.0000
      5 ****        -1.4837  -0.3241   0.7967 C.3            1 S1                 0.0000
      6 ****         0.0430  -0.1605   0.7186 C.3            1 S1                 0.0000
      7 ****         0.5166   0.0723  -0.7306 C.3            1 S1                 0.0000
      8 ****         1.9908   0.1716  -0.8133 N.4            1 S1                 1.0000
      9 ****         2.5650   1.4414  -0.3241 C.3            1 S1                 0.0000
     10 ****         4.0844   1.4665  -0.5202 C.3            1 S1                 0.0000
     11 ****         4.6860   2.7659  -0.0370 C.2            1 S1                 0.0000
     12 ****         4.8404   3.8815  -0.7778 N.pl3          1 S1                -1.0000
     13 ****         5.3576   4.8454  -0.0411 N.2            1 S1                 0.0000
     14 ****         5.5028   4.2917   1.1686 C.2            1 S1                 0.0000
     15 ****         5.0917   3.0193   1.2040 N.2            1 S1                 0.0000
     16 ****         0.0189  -1.0685  -1.6358 C.3            1 S1                 0.0000
     17 ****        -1.5082  -1.2245  -1.5609 C.3            1 S1                 0.0000
     18 ****        -5.9320  -2.7340   2.2126 H              1 S1                 0.0000
     19 ****        -5.8405  -3.1184   0.4962 H              1 S1                 0.0000
     20 ****        -6.1206  -1.4559   1.0152 H              1 S1                 0.0000
     21 ****        -3.8447  -1.4076   2.0665 H              1 S1                 0.0000
     22 ****        -3.5589  -3.0532   1.5537 H              1 S1                 0.0000
     23 ****        -3.8242  -2.3315  -0.8430 H              1 S1                 0.0000
     24 ****        -4.0007  -0.6768  -0.3282 H              1 S1                 0.0000
     25 ****        -1.5451  -2.3978   0.2291 H              1 S1                 0.0000
     26 ****        -1.9639   0.6144   0.5157 H              1 S1                 0.0000
     27 ****        -1.7619  -0.5134   1.8331 H              1 S1                 0.0000
     28 ****         0.3397   0.6704   1.3584 H              1 S1                 0.0000
     29 ****         0.5240  -1.0509   1.1264 H              1 S1                 0.0000
     30 ****         0.0907   1.0064  -1.1005 H              1 S1                 0.0000
     31 ****         2.4016  -0.5965  -0.3022 H              1 S1                 0.0000
     32 ****         2.1097   2.2748  -0.8608 H              1 S1                 0.0000
     33 ****         2.3337   1.5723   0.7331 H              1 S1                 0.0000
     34 ****         4.5506   0.6418   0.0202 H              1 S1                 0.0000
     35 ****         4.3340   1.3366  -1.5740 H              1 S1                 0.0000
     36 ****         5.9050   4.8182   2.0253 H              1 S1                 0.0000
     37 ****         0.3145  -0.8815  -2.6690 H              1 S1                 0.0000
     38 ****         0.4922  -2.0075  -1.3450 H              1 S1                 0.0000
     39 ****        -1.8173  -2.0539  -2.1983 H              1 S1                 0.0000
     40 ****        -1.9856  -0.3313  -1.9665 H              1 S1                 0.0000
     41 ****         2.2499   0.0843  -1.7855 H              1 S1                 0.0000
     42 ****         4.5982   3.9658  -1.7443 LP             1 S1                 0.0000
     43 ****         5.5884   5.7769  -0.3221 LP             1 S1                 0.0000
     44 ****         5.0898   2.3980   1.9876 LP             1 S1                 0.0000
@<TRIPOS>BOND
    1    1    2 1     
    2    1   18 1     
    3    1   19 1     
    4    1   20 1     
    5    2    3 1     
    6    2   21 1     
    7    2   22 1     
    8    3    4 1     
    9    3   23 1     
   10    3   24 1     
   11    4   17 1     
   12    4    5 1     
   13    4   25 1     
   14    5    6 1     
   15    5   26 1     
   16    5   27 1     
   17    6    7 1     
   18    6   28 1     
   19    6   29 1     
   20    7    8 1     
   21    7   16 1     
   22    7   30 1     
   23    8    9 1     
   24    8   31 1     
   25    8   41 1     
   26    9   10 1     
   27    9   32 1     
   28    9   33 1     
   29   10   34 1     
   30   10   35 1     
   31   10   11 1     
   32   11   15 2     
   33   11   12 1     
   34   12   13 1     
   35   13   14 2     
   36   14   15 1     
   37   14   36 1     
   38   16   17 1     
   39   16   37 1     
   40   16   38 1     
   41   17   39 1     
   42   17   40 1     
   43   12   42 1     
   44   13   43 1     
   45   15   44 1     
@<TRIPOS>SUBSTRUCTURE
      1 S1             1
@<TRIPOS>SET
LONE_PAIRS      STATIC     ATOMS    <user>   **** ""
3 42 43 44
DONOR_HYDROGENS      STATIC     ATOMS    <user>   **** ""
2 31 41
ATOM$BLUE        STATIC     ATOMS    COLORGROUP SYSTEM
3 42 43 44
ATOM$RED        STATIC     ATOMS    COLORGROUP SYSTEM
2 31 41
