AV-unprocessed.smi:24|AV-procd|sdf|175|dock1
  -GOLD-   2262015433D 1   1.00000     0.00000
 Structure written by MMmdl.
 61 65  0  0  0  0  0  0  0  0  1 V2000
  147.0083  136.3174  161.6739 C   0  0  0  0  0  0  0  0  0  0  0  0
  147.7251  136.9917  160.6501 O   0  0  0  0  0  0  0  0  0  0  0  0
  148.1017  136.2685  159.5387 C   0  0  0  0  0  0  0  0  0  0  0  0
  148.7481  136.9736  158.5033 C   0  0  0  0  0  0  0  0  0  0  0  0
  149.1648  136.3136  157.3320 C   0  0  0  0  0  0  0  0  0  0  0  0
  148.9355  134.9293  157.1744 C   0  0  0  0  0  0  0  0  0  0  0  0
  149.3825  134.1909  155.9139 C   0  0  2  0  0  0  0  0  0  0  0  0
  148.5020  134.5294  154.7080 C   0  0  0  0  0  0  0  0  0  0  0  0
  148.0034  133.1804  154.3108 C   0  0  0  0  0  0  0  0  0  0  0  0
  147.0693  132.9995  153.1771 C   0  0  0  0  0  0  0  0  0  0  0  0
  146.7040  131.6928  152.7803 C   0  0  0  0  0  0  0  0  0  0  0  0
  145.8099  131.5193  151.7057 C   0  0  0  0  0  0  0  0  0  0  0  0
  145.2860  132.6409  151.0327 C   0  0  0  0  0  0  0  0  0  0  0  0
  145.6545  133.9415  151.4310 C   0  0  0  0  0  0  0  0  0  0  0  0
  146.5477  134.1279  152.5042 C   0  0  0  0  0  0  0  0  0  0  0  0
  148.4542  132.2267  155.0391 N   0  0  0  0  0  0  0  0  0  0  0  0
  149.2794  132.7277  155.9925 N   0  0  0  0  0  0  0  0  0  0  0  0
  149.9857  131.9529  156.8459 C   0  0  0  0  0  0  0  0  0  0  0  0
  150.8211  132.4291  157.6171 O   0  0  0  0  0  0  0  0  0  0  0  0
  149.7337  130.4302  156.8342 C   0  0  0  0  0  0  0  0  0  0  0  0
  148.3048  130.0722  156.6926 N   0  0  0  0  0  0  0  0  0  0  0  0
  147.9196  129.2483  155.6057 C   0  0  0  0  0  0  0  0  0  0  0  0
  148.7499  128.8247  154.8000 O   0  0  0  0  0  0  0  0  0  0  0  0
  146.4942  128.9544  155.5122 C   0  0  0  0  0  0  0  0  0  0  0  0
  146.0387  128.1778  154.5144 F   0  0  0  0  0  0  0  0  0  0  0  0
  145.6213  129.4513  156.4125 C   0  0  0  0  0  0  0  0  0  0  0  0
  146.0109  130.2578  157.4669 N   0  0  0  0  0  0  0  0  0  0  0  0
  145.0161  130.8138  158.4635 C   0  0  2  0  0  0  0  0  0  0  0  0
  143.5937  130.3194  158.1417 C   0  0  0  0  0  0  0  0  0  0  0  0
  142.7867  131.6023  158.1465 C   0  0  0  0  0  0  0  0  0  0  0  0
  143.8201  132.6239  157.6965 C   0  0  0  0  0  0  0  0  0  0  0  0
  144.9936  132.2112  158.3849 O   0  0  0  0  0  0  0  0  0  0  0  0
  147.3738  130.5922  157.6230 C   0  0  0  0  0  0  0  0  0  0  0  0
  147.7386  131.3224  158.5473 O   0  0  0  0  0  0  0  0  0  0  0  0
  148.2976  134.2164  158.2095 C   0  0  0  0  0  0  0  0  0  0  0  0
  147.8809  134.8772  159.3813 C   0  0  0  0  0  0  0  0  0  0  0  0
  146.7821  137.0187  162.4771 H   0  0  0  0  0  0  0  0  0  0  0  0
  147.5952  135.5039  162.1025 H   0  0  0  0  0  0  0  0  0  0  0  0
  146.0609  135.9236  161.3036 H   0  0  0  0  0  0  0  0  0  0  0  0
  148.9270  138.0337  158.6075 H   0  0  0  0  0  0  0  0  0  0  0  0
  149.6617  136.8773  156.5559 H   0  0  0  0  0  0  0  0  0  0  0  0
  150.4198  134.4504  155.6930 H   0  0  0  0  0  0  0  0  0  0  0  0
  147.6745  135.1901  154.9710 H   0  0  0  0  0  0  0  0  0  0  0  0
  149.0796  134.9921  153.9069 H   0  0  0  0  0  0  0  0  0  0  0  0
  147.0944  130.8202  153.2840 H   0  0  0  0  0  0  0  0  0  0  0  0
  145.5249  130.5240  151.3977 H   0  0  0  0  0  0  0  0  0  0  0  0
  144.6004  132.5039  150.2093 H   0  0  0  0  0  0  0  0  0  0  0  0
  145.2506  134.7982  150.9118 H   0  0  0  0  0  0  0  0  0  0  0  0
  146.8140  135.1347  152.7900 H   0  0  0  0  0  0  0  0  0  0  0  0
  150.3111  129.9766  156.0266 H   0  0  0  0  0  0  0  0  0  0  0  0
  150.1627  130.0030  157.7417 H   0  0  0  0  0  0  0  0  0  0  0  0
  144.5801  129.1988  156.2840 H   0  0  0  0  0  0  0  0  0  0  0  0
  145.3814  130.5162  159.4482 H   0  0  0  0  0  0  0  0  0  0  0  0
  143.5687  129.8589  157.1525 H   0  0  0  0  0  0  0  0  0  0  0  0
  143.2541  129.5927  158.8803 H   0  0  0  0  0  0  0  0  0  0  0  0
  141.9138  131.5618  157.4946 H   0  0  0  0  0  0  0  0  0  0  0  0
  142.4506  131.8316  159.1586 H   0  0  0  0  0  0  0  0  0  0  0  0
  143.9762  132.5684  156.6184 H   0  0  0  0  0  0  0  0  0  0  0  0
  143.5434  133.6468  157.9526 H   0  0  0  0  0  0  0  0  0  0  0  0
  148.1215  133.1556  158.1075 H   0  0  0  0  0  0  0  0  0  0  0  0
  147.3933  134.2924  160.1461 H   0  0  0  0  0  0  0  0  0  0  0  0
  1  2  1  0  0  0  0
  1 37  1  0  0  0  0
  1 38  1  0  0  0  0
  1 39  1  0  0  0  0
  2  3  1  0  0  0  0
  3 36  1  0  0  0  0
  3  4  2  0  0  0  0
  4  5  1  0  0  0  0
  4 40  1  0  0  0  0
  5  6  2  0  0  0  0
  5 41  1  0  0  0  0
  6  7  1  0  0  0  0
  6 35  1  0  0  0  0
  7 17  1  0  0  0  0
  7  8  1  0  0  0  0
  7 42  1  0  0  0  0
  8  9  1  0  0  0  0
  8 43  1  0  0  0  0
  8 44  1  0  0  0  0
  9 10  1  0  0  0  0
  9 16  2  0  0  0  0
 10 15  1  0  0  0  0
 10 11  2  0  0  0  0
 11 12  1  0  0  0  0
 11 45  1  0  0  0  0
 12 13  2  0  0  0  0
 12 46  1  0  0  0  0
 13 14  1  0  0  0  0
 13 47  1  0  0  0  0
 14 15  2  0  0  0  0
 14 48  1  0  0  0  0
 15 49  1  0  0  0  0
 16 17  1  0  0  0  0
 17 18  1  0  0  0  0
 18 19  2  0  0  0  0
 18 20  1  0  0  0  0
 20 21  1  0  0  0  0
 20 50  1  0  0  0  0
 20 51  1  0  0  0  0
 21 33  1  0  0  0  0
 21 22  1  0  0  0  0
 22 23  2  0  0  0  0
 22 24  1  0  0  0  0
 24 25  1  0  0  0  0
 24 26  2  0  0  0  0
 26 27  1  0  0  0  0
 26 52  1  0  0  0  0
 27 28  1  0  0  0  0
 27 33  1  0  0  0  0
 28 32  1  0  0  0  0
 28 29  1  0  0  0  0
 28 53  1  0  0  0  0
 29 30  1  0  0  0  0
 29 54  1  0  0  0  0
 29 55  1  0  0  0  0
 30 31  1  0  0  0  0
 30 56  1  0  0  0  0
 30 57  1  0  0  0  0
 31 32  1  0  0  0  0
 31 58  1  0  0  0  0
 31 59  1  0  0  0  0
 33 34  2  0  0  0  0
 35 36  2  0  0  0  0
 35 60  1  0  0  0  0
 36 61  1  0  0  0  0
M  END
> <s_m_source_file>
AV-unprocessed.smi

> <i_m_source_file_index>
24

> <i_lp_mmshare_version>
43012

> <i_f3d_flags>
0

> <s_epik_input>
W0NIM11PYzFbY0hdW2NIXWMoW2NIXVtjSF0xKVtDQEBIXTJbQ0gyXUMoYzNbY0hdW2NIXVtjSF1bY0hdW2NIXTMpPU5OMkMoPU8pW0NIMl1uNGMoPU8pYyhGKVtjSF1uKGM0PU8pW0NAQEhdNVtDSDJdW0NIMl1bQ0gyXU81

> <s_epik_cmdline>
J2VwaWtfcHl0aG9uJywgJy1waCcsICc3LjAnLCAnLXRuJywgJzgnLCAnLW1hJywgJzIwMCcsICctbWV0YWxfYmluZGluZycsICctaW1hZScsICc8aW5maWxlLm1hZT4nLCAnLW9tYWUnLCAnPG91dGZpbGUubWFlPic=

> <r_lp_tautomer_probability>
1

> <r_epik_Ionization_Penalty>
1.46326e-08

> <r_epik_Ionization_Penalty_Charging>
4.53232e-09

> <r_epik_Ionization_Penalty_Neutral>
1.01002e-08

> <r_epik_State_Penalty>
-0

> <r_epik_Charging_Adjusted_Penalty>
4.53232e-09

> <i_epik_Tot_Q>
0

> <i_epik_Tot_abs_Q>
0

> <r_epik_Metal_State_Penalty>
-0

> <b_epik_Metal_Only>
0

> <s_epik_Chemistry_Notes>
This compound has an imine and may undergo hydrolysis. This compound contains an acetal/aminal-like group ( X-CH(R)-Y where X, Y are N, S, or O) that may be acid/base labile, releasing an aldehyde.

> <s_lp_Force_Field>
OPLS_2005

> <r_lp_Energy>
50.6154

> <b_lp_Chiralities_Consistent>
1

> <s_lp_Variant>
AV-unprocessed.smi:24-1

> <Gold.Version>
5.8.1

> <Gold.Id.Protein>
6NUR|6NUR_protein|mol2

> <Gold.PLP.Fitness>
44.0279

> <Gold.PLP.PLP>
-34.7490

> <Gold.PLP.part.hbond>
-3.0000

> <Gold.PLP.part.metal>
0.0000

> <Gold.PLP.part.buried>
-4.8320

> <Gold.PLP.part.nonpolar>
-28.0049

> <Gold.PLP.part.repulsive>
0.0514

> <Gold.PLP.ligand.clash>
0.0000

> <Gold.PLP.ligand.torsion>
0.5622

> <Gold.PLP.Chemscore.Hbond>
2.3942

> <Gold.PLP.Chemscore.CHOScore>
1.0000

> <Gold.PLP.Chemscore.Metal>
0.0000

> <Gold.Chemscore.Hbonds>
donor molecule, donor type, donor heavy atom, donor atom, acceptor molecule, acceptor atom, score
      P1  H  6896  6907       L1    19  0.74
      P1  H  6931  6943       L1     2  0.50
      P1  H  6934  6947       L1     2  0.72
      L1  C    26    52       P1 10956  0.90

> <Gold.PLP.Chemscore.Internal.Correction>
0.2207

> <Gold.Rescore>
     Score         DG    S(hbond)    S(metal)    S(lipo)     H(rot)  DE(clash)    DE(int)     intcor
     10.80     -16.00       1.75        0.00      83.23       1.98       0.01       5.18       ----

> <Gold.Chemscore.Fitness>
10.8049

> <Gold.Chemscore.DG>
-16.0016

> <Gold.Chemscore.ZeroCoef>
-5.4800

> <Gold.Chemscore.Hbond>
1.7483

> <Gold.Chemscore.Metal>
0.0000

> <Gold.Chemscore.Lipo>
83.2324

> <Gold.Chemscore.Internal_Hbond>
0.0000

> <Gold.Chemscore.DEClash>
0.0137

> <Gold.Chemscore.DEInternal>
5.1830

> <Gold.Chemscore.Rot>
1.9750

> <Gold.Chemscore.Internal.Correction>
   9.000000E+99

> <Gold.Chemscore.Hbonds>
donor molecule, donor type, donor heavy atom, donor atom, acceptor molecule, acceptor atom, score
      P1  H  6896  6907       L1    19  0.70
      P1  H  6931  6943       L1     2  0.12
      P1  H  6934  6947       L1     2  0.31

> <Gold.Chemscore.Hbond.Weighted>
-5.8394

> <Gold.Chemscore.Metal.Weighted>
-0.0000

> <Gold.Chemscore.Lipo.Weighted>
-9.7382

> <Gold.Chemscore.Internal_Hbond.Weighted>
0.0000

> <Gold.Chemscore.DEClash.Weighted>
0.0137

> <Gold.Chemscore.DEInternal.Weighted>
5.1830

> <Gold.Chemscore.Rot.Weighted>
5.0561

> <Gold.Chemscore.Internal.Correction.Weighted>
   9.000000E+99

> <Gold.Protein.RotatedTorsions>
[ 6907 6896 6895 6894 ] final  177.32 input  -60.11 | X-H torsion
[ 7974 7965 7964 7962 ] final   21.85 input  175.53 | X-H torsion
[ 8008 7997 7996 7995 ] final   -6.30 input   59.86 | X-H torsion
[ 10167 10162 10161 10158 ] final  129.62 input  -65.29 | X-H torsion
[ 10718 10713 10712 10709 ] final   66.49 input   66.30 | X-H torsion
[ 10763 10752 10751 10750 ] final   86.09 input  -60.55 | X-H torsion
[ 11005 11000 10999 10996 ] final   93.53 input  -57.11 | X-H torsion

> <Gold.Protein.ActiveResidues>
 VAL166  LYS551  ARG553  GLY616  TRP617  ASP618  TYR619  PRO620  LYS621  CYS622 
 ASP623  PHE694  ASN695  SER759  ASP760  ASP761  ALA762  ILE779  LEU786  VAL792 
 PHE793  MET794  SER795  GLU796  ALA797  LYS798  CYS799  TRP800  GLU811  SER814 

> <Gold.Protein.RotatedAtoms>
  151.7060  133.3311  159.3278 H   0  0  0  0  0  0  0  0  0  0  0  0  # atno 6907 bound_to 6896
  150.7715  134.6574  159.6330 H   0  0  0  0  0  0  0  0  0  0  0  0  # atno 6908 bound_to 6896
  152.3741  134.6693  160.0218 H   0  0  0  0  0  0  0  0  0  0  0  0  # atno 6909 bound_to 6896
  146.2054  139.7968  142.8730 H   0  0  0  0  0  0  0  0  0  0  0  0  # atno 7974 bound_to 7965
  154.5952  140.2436  155.7867 H   0  0  0  0  0  0  0  0  0  0  0  0  # atno 8008 bound_to 7997
  156.2274  140.2978  156.0055 H   0  0  0  0  0  0  0  0  0  0  0  0  # atno 8009 bound_to 7997
  155.2305  140.0403  157.2952 H   0  0  0  0  0  0  0  0  0  0  0  0  # atno 8010 bound_to 7997
  139.5469  144.6781  151.4445 H   0  0  0  0  0  0  0  0  0  0  0  0  # atno 10167 bound_to 10162
  157.6172  130.9270  150.0116 H   0  0  0  0  0  0  0  0  0  0  0  0  # atno 10718 bound_to 10713
  153.1537  135.4593  154.9673 H   0  0  0  0  0  0  0  0  0  0  0  0  # atno 10763 bound_to 10752
  154.7845  135.3199  154.7920 H   0  0  0  0  0  0  0  0  0  0  0  0  # atno 10764 bound_to 10752
  153.8421  135.6929  153.4856 H   0  0  0  0  0  0  0  0  0  0  0  0  # atno 10765 bound_to 10752
  139.8809  134.8795  156.3732 H   0  0  0  0  0  0  0  0  0  0  0  0  # atno 11005 bound_to 11000
  145.3338  141.0272  143.3431 LP  0  0  0  0  0  0  0  0  0  0  0  0  # atno 17320 bound_to 7965
  144.8780  139.4944  143.6736 LP  0  0  0  0  0  0  0  0  0  0  0  0  # atno 17321 bound_to 7965
  140.6720  143.8273  150.7011 LP  0  0  0  0  0  0  0  0  0  0  0  0  # atno 17342 bound_to 10162
  140.1700  143.4202  152.2007 LP  0  0  0  0  0  0  0  0  0  0  0  0  # atno 17343 bound_to 10162
  156.1300  130.3643  149.9747 LP  0  0  0  0  0  0  0  0  0  0  0  0  # atno 17370 bound_to 10713
  156.7810  130.9221  151.3646 LP  0  0  0  0  0  0  0  0  0  0  0  0  # atno 17371 bound_to 10713
  140.9450  133.7489  156.0196 LP  0  0  0  0  0  0  0  0  0  0  0  0  # atno 17394 bound_to 11000
  140.8174  134.3329  157.5392 LP  0  0  0  0  0  0  0  0  0  0  0  0  # atno 17395 bound_to 11000

$$$$
