#       Name:                AV-unprocessed.smi:707
#       Creating user name   scv26
#       Creation time:       Fri Mar 27 00:44:16 2020


#       File generated by GOLD software.
#

@<TRIPOS>MOLECULE
AV-unprocessed.smi:707
    50    51     1
SMALL
NO_CHARGES


@<TRIPOS>ATOM
      1 ****        -5.3545   0.7204  -3.3353 C.3            1 S1                 0.0000
      2 ****        -5.7947   0.9262  -1.9222 C.2            1 S1                 0.0000
      3 ****        -7.0740   1.0629  -1.5540 N.2            1 S1                 0.0000
      4 ****        -7.0498   1.2282  -0.1830 N.2            1 S1                 0.0000
      5 ****        -5.7578   1.1750   0.1385 C.2            1 S1                 0.0000
      6 ****        -4.9228   0.9908  -0.8955 N.pl3          1 S1                 0.0000
      7 ****        -3.4754   0.8884  -0.8817 C.3            1 S1                 0.0000
      8 ****        -3.0136  -0.5713  -0.7774 C.3            1 S1                 0.0000
      9 ****        -1.5599  -0.6480  -0.7717 N.am           1 S1                 0.0000
     10 ****        -0.8598  -1.7885  -0.8569 C.2            1 S1                 0.0000
     11 ****        -1.3836  -2.8978  -0.9550 O.2            1 S1                 0.0000
     12 ****         0.6623  -1.6595  -0.8470 C.3            1 S1                 0.0000
     13 ****         1.0490  -0.8270   0.2386 O.3            1 S1                 0.0000
     14 ****         2.4504  -0.6106   0.3430 C.3            1 S1                 0.0000
     15 ****         3.1469  -1.8125   1.0133 C.3            1 S1                 0.0000
     16 ****         4.6389  -1.5304   1.2482 C.3            1 S1                 0.0000
     17 ****         4.8440  -0.2470   2.0683 C.3            1 S1                 0.0000
     18 ****         4.1540   0.9615   1.4071 C.3            1 S1                 0.0000
     19 ****         4.3542   2.2420   2.2303 C.3            1 S1                 0.0000
     20 ****         2.6588   0.6658   1.1773 C.3            1 S1                 0.0000
     21 ****        -6.2183   0.6392  -3.9957 H              1 S1                 0.0000
     22 ****        -4.7691  -0.1951  -3.4200 H              1 S1                 0.0000
     23 ****        -4.7447   1.5616  -3.6650 H              1 S1                 0.0000
     24 ****        -5.4108   1.2722   1.1568 H              1 S1                 0.0000
     25 ****        -3.0808   1.3542  -1.7855 H              1 S1                 0.0000
     26 ****        -3.0970   1.4676  -0.0380 H              1 S1                 0.0000
     27 ****        -3.3996  -1.0246   0.1370 H              1 S1                 0.0000
     28 ****        -3.4068  -1.1498  -1.6149 H              1 S1                 0.0000
     29 ****        -1.0496   0.2198  -0.6916 H              1 S1                 0.0000
     30 ****         1.1080  -2.6508  -0.7618 H              1 S1                 0.0000
     31 ****         0.9871  -1.2276  -1.7947 H              1 S1                 0.0000
     32 ****         2.8745  -0.4431  -0.6489 H              1 S1                 0.0000
     33 ****         2.6630  -2.0320   1.9659 H              1 S1                 0.0000
     34 ****         3.0457  -2.7088   0.4020 H              1 S1                 0.0000
     35 ****         5.1003  -2.3754   1.7601 H              1 S1                 0.0000
     36 ****         5.1474  -1.4355   0.2880 H              1 S1                 0.0000
     37 ****         4.4494  -0.3928   3.0748 H              1 S1                 0.0000
     38 ****         5.9112  -0.0526   2.1806 H              1 S1                 0.0000
     39 ****         4.6182   1.1225   0.4329 H              1 S1                 0.0000
     40 ****         3.9080   2.1507   3.2211 H              1 S1                 0.0000
     41 ****         3.8978   3.1007   1.7371 H              1 S1                 0.0000
     42 ****         5.4139   2.4630   2.3615 H              1 S1                 0.0000
     43 ****         2.1870   1.5104   0.6739 H              1 S1                 0.0000
     44 ****         2.1542   0.5597   2.1390 H              1 S1                 0.0000
     45 ****        -7.8789   1.0484  -2.1472 LP             1 S1                 0.0000
     46 ****        -7.8281   1.3586   0.4312 LP             1 S1                 0.0000
     47 ****        -2.3800  -2.9803  -0.9744 LP             1 S1                 0.0000
     48 ****        -0.8129  -3.7167  -1.0153 LP             1 S1                 0.0000
     49 ****         0.7343  -1.2530   1.0869 LP             1 S1                 0.0000
     50 ****         0.6030   0.0609   0.1261 LP             1 S1                 0.0000
@<TRIPOS>BOND
    1    1    2 1     
    2    1   21 1     
    3    1   22 1     
    4    1   23 1     
    5    2    6 1     
    6    2    3 2     
    7    3    4 1     
    8    4    5 2     
    9    5    6 1     
   10    5   24 1     
   11    6    7 1     
   12    7    8 1     
   13    7   25 1     
   14    7   26 1     
   15    8    9 1     
   16    8   27 1     
   17    8   28 1     
   18    9   10 am    
   19    9   29 1     
   20   10   11 2     
   21   10   12 1     
   22   12   13 1     
   23   12   30 1     
   24   12   31 1     
   25   13   14 1     
   26   14   20 1     
   27   14   15 1     
   28   14   32 1     
   29   15   16 1     
   30   15   33 1     
   31   15   34 1     
   32   16   17 1     
   33   16   35 1     
   34   16   36 1     
   35   17   18 1     
   36   17   37 1     
   37   17   38 1     
   38   18   19 1     
   39   18   20 1     
   40   18   39 1     
   41   19   40 1     
   42   19   41 1     
   43   19   42 1     
   44   20   43 1     
   45   20   44 1     
   46    3   45 1     
   47    4   46 1     
   48   11   47 1     
   49   11   48 1     
   50   13   49 1     
   51   13   50 1     
@<TRIPOS>SUBSTRUCTURE
      1 S1             1
@<TRIPOS>SET
LONE_PAIRS      STATIC     ATOMS    <user>   **** ""
6 45 46 47 48 49 50
DONOR_HYDROGENS      STATIC     ATOMS    <user>   **** ""
1 29
ATOM$BLUE        STATIC     ATOMS    COLORGROUP SYSTEM
6 45 46 47 48 49 50
ATOM$RED        STATIC     ATOMS    COLORGROUP SYSTEM
1 29
