AV-unprocessed.smi:287|AV-procd|sdf|2194|dock5
  -GOLD-   2262021593D 1   1.00000     0.00000
 Structure written by MMmdl.
 55 58  0  0  0  0  0  0  0  0  1 V2000
  151.8749  145.5967  159.3047 C   0  0  0  0  0  0  0  0  0  0  0  0
  151.8661  144.1334  159.0228 C   0  0  0  0  0  0  0  0  0  0  0  0
  151.1504  143.3392  158.1752 C   0  0  0  0  0  0  0  0  0  0  0  0
  151.6042  141.9993  158.3608 C   0  0  0  0  0  0  0  0  0  0  0  0
  151.0866  140.7731  157.6217 C   0  0  2  0  0  0  0  0  0  0  0  0
  151.5420  139.4968  158.3481 C   0  0  0  0  0  0  0  0  0  0  0  0
  151.6029  140.6609  156.3093 O   0  0  0  0  0  0  0  0  0  0  0  0
  149.5478  140.7847  157.4799 C   0  0  0  0  0  0  0  0  0  0  0  0
  149.0826  141.6896  156.4361 N   0  0  0  0  0  0  0  0  0  0  0  0
  148.2477  141.2638  155.4652 C   0  0  0  0  0  0  0  0  0  0  0  0
  147.7620  142.2298  154.6490 N   0  0  0  0  0  0  0  0  0  0  0  0
  146.9237  141.9146  153.6574 C   0  0  0  0  0  0  0  0  0  0  0  0
  146.4509  140.7150  153.3142 N   0  0  0  0  0  0  0  0  0  0  0  0
  146.9358  139.7374  154.1324 C   0  0  0  0  0  0  0  0  0  0  0  0
  147.8354  139.9198  155.2217 C   0  0  0  0  0  0  0  0  0  0  0  0
  148.1034  138.6842  155.8033 N   0  0  0  0  0  0  0  0  0  0  0  0
  147.4038  137.8343  155.1017 C   0  0  0  0  0  0  0  0  0  0  0  0
  146.6697  138.3883  154.0771 N   0  0  0  0  0  0  0  0  0  0  0  0
  145.7783  137.7107  153.0876 C   0  0  2  0  0  0  0  0  0  0  0  0
  145.8436  136.3423  153.3103 O   0  0  0  0  0  0  0  0  0  0  0  0
  145.4503  135.6932  152.1134 C   0  0  2  0  0  0  0  0  0  0  0  0
  145.9199  134.2305  152.1471 C   0  0  0  0  0  0  0  0  0  0  0  0
  147.3064  134.1630  152.4036 O   0  0  0  0  0  0  0  0  0  0  0  0
  146.0862  136.5496  151.0055 C   0  0  1  0  0  0  0  0  0  0  0  0
  145.2384  136.5869  149.8748 O   0  0  0  0  0  0  0  0  0  0  0  0
  146.2104  137.9431  151.6258 C   0  0  2  0  0  0  0  0  0  0  0  0
  147.5309  138.4380  151.4879 O   0  0  0  0  0  0  0  0  0  0  0  0
  152.5708  142.0882  159.3338 C   0  0  0  0  0  0  0  0  0  0  0  0
  153.4483  141.0936  160.0198 C   0  0  0  0  0  0  0  0  0  0  0  0
  152.7374  143.3785  159.7377 O   0  0  0  0  0  0  0  0  0  0  0  0
  144.7717  138.0751  153.3013 H   0  0  0  0  0  0  0  0  0  0  0  0
  144.3600  135.7423  152.0641 H   0  0  0  0  0  0  0  0  0  0  0  0
  147.0648  136.1557  150.7259 H   0  0  0  0  0  0  0  0  0  0  0  0
  145.5207  138.6627  151.1821 H   0  0  0  0  0  0  0  0  0  0  0  0
  151.3503  146.1463  158.5229 H   0  0  0  0  0  0  0  0  0  0  0  0
  152.8957  145.9762  159.3562 H   0  0  0  0  0  0  0  0  0  0  0  0
  151.3848  145.8093  160.2549 H   0  0  0  0  0  0  0  0  0  0  0  0
  150.3873  143.6812  157.4918 H   0  0  0  0  0  0  0  0  0  0  0  0
  151.1587  139.4640  159.3686 H   0  0  0  0  0  0  0  0  0  0  0  0
  152.6300  139.4399  158.4053 H   0  0  0  0  0  0  0  0  0  0  0  0
  151.1899  138.5990  157.8386 H   0  0  0  0  0  0  0  0  0  0  0  0
  152.5079  140.3946  156.3647 H   0  0  0  0  0  0  0  0  0  0  0  0
  149.1650  139.7778  157.3071 H   0  0  0  0  0  0  0  0  0  0  0  0
  149.1210  141.1302  158.4222 H   0  0  0  0  0  0  0  0  0  0  0  0
  149.3897  142.6480  156.5215 H   0  0  0  0  0  0  0  0  0  0  0  0
  146.5821  142.7425  153.0538 H   0  0  0  0  0  0  0  0  0  0  0  0
  147.4085  136.7744  155.3115 H   0  0  0  0  0  0  0  0  0  0  0  0
  145.3767  133.6610  152.9017 H   0  0  0  0  0  0  0  0  0  0  0  0
  145.7288  133.7541  151.1851 H   0  0  0  0  0  0  0  0  0  0  0  0
  147.7021  134.9778  152.1332 H   0  0  0  0  0  0  0  0  0  0  0  0
  145.6237  136.0549  149.1947 H   0  0  0  0  0  0  0  0  0  0  0  0
  148.0952  137.9432  152.0629 H   0  0  0  0  0  0  0  0  0  0  0  0
  152.8551  140.2857  160.4486 H   0  0  0  0  0  0  0  0  0  0  0  0
  154.0143  141.5577  160.8279 H   0  0  0  0  0  0  0  0  0  0  0  0
  154.1595  140.6585  159.3178 H   0  0  0  0  0  0  0  0  0  0  0  0
  1  2  1  0  0  0  0
  1 35  1  0  0  0  0
  1 36  1  0  0  0  0
  1 37  1  0  0  0  0
  2 30  1  0  0  0  0
  2  3  2  0  0  0  0
  3  4  1  0  0  0  0
  3 38  1  0  0  0  0
  4  5  1  0  0  0  0
  4 28  2  0  0  0  0
  5  6  1  0  0  0  0
  5  7  1  0  0  0  0
  5  8  1  0  0  0  0
  6 39  1  0  0  0  0
  6 40  1  0  0  0  0
  6 41  1  0  0  0  0
  7 42  1  0  0  0  0
  8  9  1  0  0  0  0
  8 43  1  0  0  0  0
  8 44  1  0  0  0  0
  9 10  1  0  0  0  0
  9 45  1  0  0  0  0
 10 15  1  0  0  0  0
 10 11  2  0  0  0  0
 11 12  1  0  0  0  0
 12 13  2  0  0  0  0
 12 46  1  0  0  0  0
 13 14  1  0  0  0  0
 14 18  1  0  0  0  0
 14 15  2  0  0  0  0
 15 16  1  0  0  0  0
 16 17  2  0  0  0  0
 17 18  1  0  0  0  0
 17 47  1  0  0  0  0
 18 19  1  0  0  0  0
 19 31  1  0  0  0  0
 19 26  1  0  0  0  0
 19 20  1  0  0  0  0
 20 21  1  0  0  0  0
 21 32  1  0  0  0  0
 21 22  1  0  0  0  0
 21 24  1  0  0  0  0
 22 23  1  0  0  0  0
 22 48  1  0  0  0  0
 22 49  1  0  0  0  0
 23 50  1  0  0  0  0
 24 33  1  0  0  0  0
 24 25  1  0  0  0  0
 24 26  1  0  0  0  0
 25 51  1  0  0  0  0
 26 34  1  0  0  0  0
 26 27  1  0  0  0  0
 27 52  1  0  0  0  0
 28 29  1  0  0  0  0
 28 30  1  0  0  0  0
 29 53  1  0  0  0  0
 29 54  1  0  0  0  0
 29 55  1  0  0  0  0
M  END
> <s_m_source_file>
AV-unprocessed.smi

> <i_m_source_file_index>
287

> <i_lp_mmshare_version>
43012

> <i_f3d_flags>
0

> <s_epik_input>
W0NIM11jMVtjSF1jKGMobzEpW0NIM10pW0NAQF0oW0NIM10pKFtPSF0pW0NIMl1bTkhdYyhuW2NIXW4yKWMoYzIzKW5bY0hdbjNbQ0BASF00T1tDQEhdKFtDSDJdW09IXSlbQ0BASF0oW09IXSlbQ0BIXTRbT0hd

> <s_epik_cmdline>
J2VwaWtfcHl0aG9uJywgJy1waCcsICc3LjAnLCAnLXRuJywgJzgnLCAnLW1hJywgJzIwMCcsICctbWV0YWxfYmluZGluZycsICctaW1hZScsICc8aW5maWxlLm1hZT4nLCAnLW9tYWUnLCAnPG91dGZpbGUubWFlPic=

> <r_lp_tautomer_probability>
1

> <r_epik_Ionization_Penalty>
0.000992612

> <r_epik_Ionization_Penalty_Charging>
0

> <r_epik_Ionization_Penalty_Neutral>
0.000992612

> <r_epik_State_Penalty>
-0

> <r_epik_Charging_Adjusted_Penalty>
0

> <i_epik_Tot_Q>
0

> <i_epik_Tot_abs_Q>
0

> <r_epik_Metal_State_Penalty>
-0

> <b_epik_Metal_Only>
0

> <s_epik_Chemistry_Notes>
This compound contains an acetal/aminal-like group ( X-CH(R)-Y where X, Y are N, S, or O) that may be acid/base labile, releasing an aldehyde.

> <s_lp_Force_Field>
OPLS_2005

> <r_lp_Energy>
43.2107

> <b_lp_Chiralities_Consistent>
1

> <s_lp_Variant>
AV-unprocessed.smi:287-18

> <Gold.Version>
5.8.1

> <Gold.Id.Protein>
6NUR|6NUR_protein|mol2

> <Gold.PLP.Fitness>
54.0707

> <Gold.PLP.PLP>
-44.2387

> <Gold.PLP.part.hbond>
-6.3222

> <Gold.PLP.part.metal>
0.0000

> <Gold.PLP.part.buried>
-4.7114

> <Gold.PLP.part.nonpolar>
-36.7879

> <Gold.PLP.part.repulsive>
3.4185

> <Gold.PLP.ligand.clash>
0.1198

> <Gold.PLP.ligand.torsion>
0.9262

> <Gold.PLP.Chemscore.Hbond>
3.9043

> <Gold.PLP.Chemscore.CHOScore>
0.0000

> <Gold.PLP.Chemscore.Metal>
0.0000

> <Gold.Chemscore.Hbonds>
donor molecule, donor type, donor heavy atom, donor atom, acceptor molecule, acceptor atom, score
      L1  H     9    45       P1  8028  0.25
      L1  H    23    50       P1  7948  1.00
      L1  H    25    51       P1  7921  0.99
      L1  H    27    52       P1  7948  0.62
      P1  H  7954  7966       L1    27  0.95

> <Gold.PLP.Chemscore.Internal.Correction>
0.0914

> <Gold.Rescore>
     Score         DG    S(hbond)    S(metal)    S(lipo)     H(rot)  DE(clash)    DE(int)     intcor
      9.27     -15.88       3.42        0.00     106.59       5.27       3.51       3.10       ----

> <Gold.Chemscore.Fitness>
9.2749

> <Gold.Chemscore.DG>
-15.8817

> <Gold.Chemscore.ZeroCoef>
-5.4800

> <Gold.Chemscore.Hbond>
3.4176

> <Gold.Chemscore.Metal>
0.0000

> <Gold.Chemscore.Lipo>
106.5896

> <Gold.Chemscore.Internal_Hbond>
0.0000

> <Gold.Chemscore.DEClash>
3.5100

> <Gold.Chemscore.DEInternal>
3.0968

> <Gold.Chemscore.Rot>
5.2672

> <Gold.Chemscore.Internal.Correction>
   9.000000E+99

> <Gold.Chemscore.Hbonds>
donor molecule, donor type, donor heavy atom, donor atom, acceptor molecule, acceptor atom, score
      L1  H     9    45       P1  8028  0.26
      L1  H    23    50       P1  7948  0.85
      L1  H    25    51       P1  7921  0.92
      L1  H    27    52       P1  7948  0.62
      P1  H  7954  7966       L1    27  0.15

> <Gold.Chemscore.Hbond.Weighted>
-11.4146

> <Gold.Chemscore.Metal.Weighted>
-0.0000

> <Gold.Chemscore.Lipo.Weighted>
-12.4710

> <Gold.Chemscore.Internal_Hbond.Weighted>
0.0000

> <Gold.Chemscore.DEClash.Weighted>
3.5100

> <Gold.Chemscore.DEInternal.Weighted>
3.0968

> <Gold.Chemscore.Rot.Weighted>
13.4839

> <Gold.Chemscore.Internal.Correction.Weighted>
   9.000000E+99

> <Gold.Protein.RotatedTorsions>
[ 6907 6896 6895 6894 ] final  142.02 input  -60.11 | X-H torsion
[ 7974 7965 7964 7962 ] final  173.26 input  175.53 | X-H torsion
[ 8008 7997 7996 7995 ] final   18.74 input   59.86 | X-H torsion
[ 10167 10162 10161 10158 ] final  166.59 input  -65.29 | X-H torsion
[ 10718 10713 10712 10709 ] final -148.95 input   66.30 | X-H torsion
[ 10763 10752 10751 10750 ] final  150.63 input  -60.55 | X-H torsion
[ 11005 11000 10999 10996 ] final  170.69 input  -57.11 | X-H torsion

> <Gold.Protein.ActiveResidues>
 VAL166  LYS551  ARG553  GLY616  TRP617  ASP618  TYR619  PRO620  LYS621  CYS622 
 ASP623  PHE694  ASN695  SER759  ASP760  ASP761  ALA762  ILE779  LEU786  VAL792 
 PHE793  MET794  SER795  GLU796  ALA797  LYS798  CYS799  TRP800  GLU811  SER814 

> <Gold.Protein.RotatedAtoms>
  152.2238  133.5004  159.5177 H   0  0  0  0  0  0  0  0  0  0  0  0  # atno 6907 bound_to 6896
  150.7019  134.1307  159.4078 H   0  0  0  0  0  0  0  0  0  0  0  0  # atno 6908 bound_to 6896
  151.9228  135.0290  160.0574 H   0  0  0  0  0  0  0  0  0  0  0  0  # atno 6909 bound_to 6896
  144.7248  139.9620  143.6435 H   0  0  0  0  0  0  0  0  0  0  0  0  # atno 7974 bound_to 7965
  154.9105  140.3013  155.5269 H   0  0  0  0  0  0  0  0  0  0  0  0  # atno 8008 bound_to 7997
  156.3015  140.2390  156.4079 H   0  0  0  0  0  0  0  0  0  0  0  0  # atno 8009 bound_to 7997
  154.8430  140.0413  157.1543 H   0  0  0  0  0  0  0  0  0  0  0  0  # atno 8010 bound_to 7997
  139.4928  144.4012  151.9408 H   0  0  0  0  0  0  0  0  0  0  0  0  # atno 10167 bound_to 10162
  156.4268  130.8056  151.2281 H   0  0  0  0  0  0  0  0  0  0  0  0  # atno 10718 bound_to 10713
  154.0906  135.2853  155.3272 H   0  0  0  0  0  0  0  0  0  0  0  0  # atno 10763 bound_to 10752
  154.6623  135.5330  153.8036 H   0  0  0  0  0  0  0  0  0  0  0  0  # atno 10764 bound_to 10752
  153.0415  135.6537  154.1075 H   0  0  0  0  0  0  0  0  0  0  0  0  # atno 10765 bound_to 10752
  140.3111  134.7516  157.3992 H   0  0  0  0  0  0  0  0  0  0  0  0  # atno 11005 bound_to 11000
  146.0630  139.3622  143.0570 LP  0  0  0  0  0  0  0  0  0  0  0  0  # atno 17320 bound_to 7965
  145.8068  140.9745  143.0969 LP  0  0  0  0  0  0  0  0  0  0  0  0  # atno 17321 bound_to 7965
  140.3451  144.3157  150.5959 LP  0  0  0  0  0  0  0  0  0  0  0  0  # atno 17342 bound_to 10162
  140.5533  143.2203  151.7890 LP  0  0  0  0  0  0  0  0  0  0  0  0  # atno 17343 bound_to 10162
  157.7508  131.0211  150.3735 LP  0  0  0  0  0  0  0  0  0  0  0  0  # atno 17370 bound_to 10713
  156.4064  130.3925  149.6923 LP  0  0  0  0  0  0  0  0  0  0  0  0  # atno 17371 bound_to 10713
  140.1024  134.5455  155.8340 LP  0  0  0  0  0  0  0  0  0  0  0  0  # atno 17394 bound_to 11000
  141.2108  133.6699  156.6535 LP  0  0  0  0  0  0  0  0  0  0  0  0  # atno 17395 bound_to 11000

$$$$
