AV-unprocessed.smi:1677|AV-procd|sdf|6722|dock3
  -GOLD-   22720 7463D 1   1.00000     0.00000
 Structure written by MMmdl.
 37 38  0  0  0  0  0  0  0  0  2 V2000
  151.5001  139.6357  155.3552 C   0  0  0  0  0  0  0  0  0  0  0  0
  150.1850  140.3898  155.5941 C   0  0  2  0  0  0  0  0  0  0  0  0
  149.6326  140.9820  154.2798 C   0  0  0  0  0  0  0  0  0  0  0  0
  148.1869  141.2269  154.3271 N   0  0  0  0  0  0  0  0  0  0  0  0
  147.5140  142.0515  155.1919 C   0  0  0  0  0  0  0  0  0  0  0  0
  146.1876  141.9729  154.8541 C   0  0  0  0  0  0  0  0  0  0  0  0
  146.1062  141.1008  153.8017 N   0  3  0  0  0  0  0  0  0  0  0  0
  147.3224  140.6446  153.4855 C   0  0  0  0  0  0  0  0  0  0  0  0
  150.4168  141.4395  156.5853 N   0  0  0  0  0  0  0  0  0  0  0  0
  151.1503  141.3166  157.7031 C   0  0  0  0  0  0  0  0  0  0  0  0
  151.7285  140.2768  158.0212 O   0  0  0  0  0  0  0  0  0  0  0  0
  151.2260  142.5513  158.6097 C   0  0  1  0  0  0  0  0  0  0  0  0
  152.1974  142.3136  159.7889 C   0  0  0  0  0  0  0  0  0  0  0  0
  152.4917  143.5913  160.5549 C   0  0  0  0  0  0  0  0  0  0  0  0
  152.2250  144.8183  160.0758 C   0  0  0  0  0  0  0  0  0  0  0  0
  151.6035  145.0666  158.7128 C   0  0  0  0  0  0  0  0  0  0  0  0
  151.6339  143.8113  157.8205 C   0  0  0  0  0  0  0  0  0  0  0  0
  151.3604  138.8184  154.6471 H   0  0  0  0  0  0  0  0  0  0  0  0
  151.8798  139.2041  156.2821 H   0  0  0  0  0  0  0  0  0  0  0  0
  152.2705  140.2952  154.9538 H   0  0  0  0  0  0  0  0  0  0  0  0
  149.4674  139.6661  155.9854 H   0  0  0  0  0  0  0  0  0  0  0  0
  150.1389  141.9155  154.0276 H   0  0  0  0  0  0  0  0  0  0  0  0
  149.8103  140.2944  153.4521 H   0  0  0  0  0  0  0  0  0  0  0  0
  148.0170  142.6234  155.9582 H   0  0  0  0  0  0  0  0  0  0  0  0
  145.3187  142.4601  155.2721 H   0  0  0  0  0  0  0  0  0  0  0  0
  147.5595  139.9525  152.6974 H   0  0  0  0  0  0  0  0  0  0  0  0
  149.9841  142.3341  156.4056 H   0  0  0  0  0  0  0  0  0  0  0  0
  150.2312  142.7317  159.0224 H   0  0  0  0  0  0  0  0  0  0  0  0
  151.7688  141.5858  160.4788 H   0  0  0  0  0  0  0  0  0  0  0  0
  153.1477  141.9028  159.4448 H   0  0  0  0  0  0  0  0  0  0  0  0
  152.9502  143.4828  161.5269 H   0  0  0  0  0  0  0  0  0  0  0  0
  152.4457  145.6887  160.6762 H   0  0  0  0  0  0  0  0  0  0  0  0
  150.5754  145.3960  158.8657 H   0  0  0  0  0  0  0  0  0  0  0  0
  152.1292  145.8848  158.2201 H   0  0  0  0  0  0  0  0  0  0  0  0
  152.6423  143.6820  157.4238 H   0  0  0  0  0  0  0  0  0  0  0  0
  150.9811  143.9584  156.9590 H   0  0  0  0  0  0  0  0  0  0  0  0
  145.2505  140.8390  153.3284 H   0  0  0  0  0  0  0  0  0  0  0  0
  1  2  1  0  0  0  0
  1 18  1  0  0  0  0
  1 19  1  0  0  0  0
  1 20  1  0  0  0  0
  2  3  1  0  0  0  0
  2  9  1  0  0  0  0
  2 21  1  0  0  0  0
  3  4  1  0  0  0  0
  3 22  1  0  0  0  0
  3 23  1  0  0  0  0
  4  8  1  0  0  0  0
  4  5  1  0  0  0  0
  5  6  2  0  0  0  0
  5 24  1  0  0  0  0
  6  7  1  0  0  0  0
  6 25  1  0  0  0  0
  7  8  2  0  0  0  0
  7 37  1  0  0  0  0
  8 26  1  0  0  0  0
  9 10  1  0  0  0  0
  9 27  1  0  0  0  0
 10 11  2  0  0  0  0
 10 12  1  0  0  0  0
 12 17  1  0  0  0  0
 12 13  1  0  0  0  0
 12 28  1  0  0  0  0
 13 14  1  0  0  0  0
 13 29  1  0  0  0  0
 13 30  1  0  0  0  0
 14 15  2  0  0  0  0
 14 31  1  0  0  0  0
 15 16  1  0  0  0  0
 15 32  1  0  0  0  0
 16 17  1  0  0  0  0
 16 33  1  0  0  0  0
 16 34  1  0  0  0  0
 17 35  1  0  0  0  0
 17 36  1  0  0  0  0
M  CHG  1   7   1
M  END
> <s_m_source_file>
AV-unprocessed.smi

> <i_m_source_file_index>
1677

> <i_lp_mmshare_version>
43012

> <i_f3d_flags>
0

> <s_epik_input>
W2NIXTFuW2NIXVtjSF1uMVtDSDJdW0NAQEhdKFtDSDNdKVtOSF1DKD1PKVtDQEBIXTJbQ0gyXVtDSF09W0NIXVtDSDJdW0NIMl0y

> <s_epik_cmdline>
J2VwaWtfcHl0aG9uJywgJy1waCcsICc3LjAnLCAnLXRuJywgJzgnLCAnLW1hJywgJzIwMCcsICctbWV0YWxfYmluZGluZycsICctaW1hZScsICc8aW5maWxlLm1hZT4nLCAnLW9tYWUnLCAnPG91dGZpbGUubWFlPic=

> <r_lp_tautomer_probability>
1

> <r_epik_Ionization_Penalty>
0.245541

> <r_epik_Ionization_Penalty_Charging>
0

> <r_epik_Ionization_Penalty_Neutral>
0.245541

> <r_epik_State_Penalty>
0.236686

> <r_epik_Charging_Adjusted_Penalty>
0.236686

> <i_epik_Tot_Q>
1

> <i_epik_Tot_abs_Q>
1

> <r_epik_Metal_State_Penalty>
0.529594

> <b_epik_Metal_Only>
0

> <s_lp_Force_Field>
OPLS_2005

> <r_lp_Energy>
10.8943

> <b_lp_Chiralities_Consistent>
1

> <s_lp_Variant>
AV-unprocessed.smi:1677-3

> <Gold.Version>
5.8.1

> <Gold.Id.Protein>
6NUR|6NUR_protein|mol2

> <Gold.PLP.Fitness>
49.7075

> <Gold.PLP.PLP>
-39.3451

> <Gold.PLP.part.hbond>
-1.0000

> <Gold.PLP.part.metal>
0.0000

> <Gold.PLP.part.buried>
-0.5232

> <Gold.PLP.part.nonpolar>
-37.5432

> <Gold.PLP.part.repulsive>
0.0573

> <Gold.PLP.ligand.clash>
0.0000

> <Gold.PLP.ligand.torsion>
0.5608

> <Gold.PLP.Chemscore.Hbond>
2.0000

> <Gold.PLP.Chemscore.CHOScore>
1.8169

> <Gold.PLP.Chemscore.Metal>
0.0000

> <Gold.Chemscore.Hbonds>
donor molecule, donor type, donor heavy atom, donor atom, acceptor molecule, acceptor atom, score
      L1  H     7    37       P1 10175  2.00
      L1  C     5    24       P1  8028  0.88
      L1  C     8    26       P1  7957  0.90

> <Gold.PLP.Chemscore.Internal.Correction>
0.0335

> <Gold.Rescore>
     Score         DG    S(hbond)    S(metal)    S(lipo)     H(rot)  DE(clash)    DE(int)     intcor
     13.76     -15.89       0.98        0.00     100.84       1.81       0.22       1.91       ----

> <Gold.Chemscore.Fitness>
13.7578

> <Gold.Chemscore.DG>
-15.8931

> <Gold.Chemscore.ZeroCoef>
-5.4800

> <Gold.Chemscore.Hbond>
0.9762

> <Gold.Chemscore.Metal>
0.0000

> <Gold.Chemscore.Lipo>
100.8397

> <Gold.Chemscore.Internal_Hbond>
0.0000

> <Gold.Chemscore.DEClash>
0.2231

> <Gold.Chemscore.DEInternal>
1.9122

> <Gold.Chemscore.Rot>
1.8147

> <Gold.Chemscore.Internal.Correction>
   9.000000E+99

> <Gold.Chemscore.Hbonds>
donor molecule, donor type, donor heavy atom, donor atom, acceptor molecule, acceptor atom, score
      L1  H     7    37       P1 10175  0.74

> <Gold.Chemscore.Hbond.Weighted>
-3.2605

> <Gold.Chemscore.Metal.Weighted>
-0.0000

> <Gold.Chemscore.Lipo.Weighted>
-11.7982

> <Gold.Chemscore.Internal_Hbond.Weighted>
0.0000

> <Gold.Chemscore.DEClash.Weighted>
0.2231

> <Gold.Chemscore.DEInternal.Weighted>
1.9122

> <Gold.Chemscore.Rot.Weighted>
4.6456

> <Gold.Chemscore.Internal.Correction.Weighted>
   9.000000E+99

> <Gold.Protein.RotatedTorsions>
[ 6907 6896 6895 6894 ] final  101.64 input  -60.11 | X-H torsion
[ 7974 7965 7964 7962 ] final  -41.95 input  175.53 | X-H torsion
[ 8008 7997 7996 7995 ] final   65.19 input   59.86 | X-H torsion
[ 10167 10162 10161 10158 ] final -116.53 input  -65.29 | X-H torsion
[ 10718 10713 10712 10709 ] final  118.73 input   66.30 | X-H torsion
[ 10763 10752 10751 10750 ] final   71.46 input  -60.55 | X-H torsion
[ 11005 11000 10999 10996 ] final   72.49 input  -57.11 | X-H torsion

> <Gold.Protein.ActiveResidues>
 VAL166  LYS551  ARG553  GLY616  TRP617  ASP618  TYR619  PRO620  LYS621  CYS622 
 ASP623  PHE694  ASN695  SER759  ASP760  ASP761  ALA762  ILE779  LEU786  VAL792 
 PHE793  MET794  SER795  GLU796  ALA797  LYS798  CYS799  TRP800  GLU811  SER814 

> <Gold.Protein.RotatedAtoms>
  152.5344  134.0095  159.7931 H   0  0  0  0  0  0  0  0  0  0  0  0  # atno 6907 bound_to 6896
  151.0300  133.5791  159.2669 H   0  0  0  0  0  0  0  0  0  0  0  0  # atno 6908 bound_to 6896
  151.2799  135.0718  159.9219 H   0  0  0  0  0  0  0  0  0  0  0  0  # atno 6909 bound_to 6896
  146.0162  140.6905  142.9200 H   0  0  0  0  0  0  0  0  0  0  0  0  # atno 7974 bound_to 7965
  155.6578  140.3497  155.4771 H   0  0  0  0  0  0  0  0  0  0  0  0  # atno 8008 bound_to 7997
  155.9794  140.1171  157.0764 H   0  0  0  0  0  0  0  0  0  0  0  0  # atno 8009 bound_to 7997
  154.4187  140.1141  156.5400 H   0  0  0  0  0  0  0  0  0  0  0  0  # atno 8010 bound_to 7997
  140.0783  143.4812  152.1941 H   0  0  0  0  0  0  0  0  0  0  0  0  # atno 10167 bound_to 10162
  157.6010  131.1051  150.7797 H   0  0  0  0  0  0  0  0  0  0  0  0  # atno 10718 bound_to 10713
  153.0400  135.5136  154.7596 H   0  0  0  0  0  0  0  0  0  0  0  0  # atno 10763 bound_to 10752
  154.6541  135.2929  154.9952 H   0  0  0  0  0  0  0  0  0  0  0  0  # atno 10764 bound_to 10752
  154.0826  135.6662  153.4893 H   0  0  0  0  0  0  0  0  0  0  0  0  # atno 10765 bound_to 10752
  139.9488  134.7264  156.0912 H   0  0  0  0  0  0  0  0  0  0  0  0  # atno 11005 bound_to 11000
  144.6972  140.3486  143.7186 LP  0  0  0  0  0  0  0  0  0  0  0  0  # atno 17320 bound_to 7965
  145.7264  139.1724  143.2455 LP  0  0  0  0  0  0  0  0  0  0  0  0  # atno 17321 bound_to 7965
  139.5795  144.7503  151.3677 LP  0  0  0  0  0  0  0  0  0  0  0  0  # atno 17342 bound_to 10162
  140.7091  143.7437  150.7534 LP  0  0  0  0  0  0  0  0  0  0  0  0  # atno 17343 bound_to 10162
  156.8196  130.4979  149.5345 LP  0  0  0  0  0  0  0  0  0  0  0  0  # atno 17370 bound_to 10713
  156.1084  130.6022  151.0007 LP  0  0  0  0  0  0  0  0  0  0  0  0  # atno 17371 bound_to 10713
  141.1146  133.6632  156.3062 LP  0  0  0  0  0  0  0  0  0  0  0  0  # atno 17394 bound_to 11000
  140.5768  134.5785  157.5470 LP  0  0  0  0  0  0  0  0  0  0  0  0  # atno 17395 bound_to 11000

$$$$
