AV-unprocessed.smi:2198|AV-procd|sdf|8911|dock10
  -GOLD-   2272012133D 1   1.00000     0.00000
 Structure written by MMmdl.
 43 44  0  0  0  0  0  0  0  0  1 V2000
  146.5090  138.2109  152.1805 C   0  0  0  0  0  0  0  0  0  0  0  0
  147.3169  139.2506  152.9279 C   0  0  0  0  0  0  0  0  0  0  0  0
  146.8345  140.3731  153.3497 N   0  0  0  0  0  0  0  0  0  0  0  0
  147.6818  141.2564  154.0330 C   0  0  0  0  0  0  0  0  0  0  0  0
  147.0411  142.5524  154.4991 C   0  0  0  0  0  0  0  0  0  0  0  0
  148.9948  140.9580  154.2592 C   0  0  0  0  0  0  0  0  0  0  0  0
  149.9408  141.8977  155.0052 C   0  0  0  0  0  0  0  0  0  0  0  0
  149.6843  142.0498  156.5066 C   0  0  0  0  0  0  0  0  0  0  0  0
  148.8633  141.3299  157.0754 O   0  0  0  0  0  0  0  0  0  0  0  0
  150.3961  142.9974  157.1351 N   0  0  0  0  0  0  0  0  0  0  0  0
  150.3061  143.3266  158.5566 C   0  0  2  0  0  0  0  0  0  0  0  0
  150.8713  144.7367  158.8129 C   0  0  0  0  0  0  0  0  0  0  0  0
  152.4008  144.7866  158.6546 C   0  0  0  0  0  0  0  0  0  0  0  0
  153.0887  143.7426  159.5478 C   0  0  0  0  0  0  0  0  0  0  0  0
  152.5612  142.3223  159.2685 C   0  0  1  0  0  0  0  0  0  0  0  0
  153.2499  141.2835  160.1649 C   0  0  0  0  0  0  0  0  0  0  0  0
  151.0272  142.2751  159.4283 C   0  0  0  0  0  0  0  0  0  0  0  0
  149.5354  139.6742  153.7722 C   0  0  0  0  0  0  0  0  0  0  0  0
  150.6985  139.3038  153.9238 O   0  0  0  0  0  0  0  0  0  0  0  0
  148.6479  138.8866  153.1244 N   0  0  0  0  0  0  0  0  0  0  0  0
  148.9693  137.9963  152.7733 H   0  0  0  0  0  0  0  0  0  0  0  0
  145.6878  137.8552  152.8027 H   0  0  0  0  0  0  0  0  0  0  0  0
  147.1198  137.3523  151.8985 H   0  0  0  0  0  0  0  0  0  0  0  0
  146.0891  138.6433  151.2722 H   0  0  0  0  0  0  0  0  0  0  0  0
  147.5058  143.4074  154.0079 H   0  0  0  0  0  0  0  0  0  0  0  0
  147.1492  142.6701  155.5774 H   0  0  0  0  0  0  0  0  0  0  0  0
  145.9754  142.5731  154.2675 H   0  0  0  0  0  0  0  0  0  0  0  0
  150.9771  141.5867  154.8694 H   0  0  0  0  0  0  0  0  0  0  0  0
  149.8842  142.8818  154.5388 H   0  0  0  0  0  0  0  0  0  0  0  0
  151.0489  143.5376  156.5862 H   0  0  0  0  0  0  0  0  0  0  0  0
  149.2501  143.3400  158.8324 H   0  0  0  0  0  0  0  0  0  0  0  0
  150.4016  145.4598  158.1448 H   0  0  0  0  0  0  0  0  0  0  0  0
  150.6104  145.0463  159.8257 H   0  0  0  0  0  0  0  0  0  0  0  0
  152.6715  144.6121  157.6126 H   0  0  0  0  0  0  0  0  0  0  0  0
  152.7660  145.7837  158.9024 H   0  0  0  0  0  0  0  0  0  0  0  0
  154.1666  143.7790  159.3869 H   0  0  0  0  0  0  0  0  0  0  0  0
  152.9247  143.9977  160.5958 H   0  0  0  0  0  0  0  0  0  0  0  0
  152.8035  142.0700  158.2352 H   0  0  0  0  0  0  0  0  0  0  0  0
  153.0513  141.4754  161.2197 H   0  0  0  0  0  0  0  0  0  0  0  0
  154.3308  141.2964  160.0221 H   0  0  0  0  0  0  0  0  0  0  0  0
  152.9001  140.2760  159.9380 H   0  0  0  0  0  0  0  0  0  0  0  0
  150.7718  142.4515  160.4740 H   0  0  0  0  0  0  0  0  0  0  0  0
  150.6567  141.2758  159.1957 H   0  0  0  0  0  0  0  0  0  0  0  0
  1  2  1  0  0  0  0
  1 22  1  0  0  0  0
  1 23  1  0  0  0  0
  1 24  1  0  0  0  0
  2 20  1  0  0  0  0
  2  3  2  0  0  0  0
  3  4  1  0  0  0  0
  4  5  1  0  0  0  0
  4  6  2  0  0  0  0
  5 25  1  0  0  0  0
  5 26  1  0  0  0  0
  5 27  1  0  0  0  0
  6  7  1  0  0  0  0
  6 18  1  0  0  0  0
  7  8  1  0  0  0  0
  7 28  1  0  0  0  0
  7 29  1  0  0  0  0
  8  9  2  0  0  0  0
  8 10  1  0  0  0  0
 10 11  1  0  0  0  0
 10 30  1  0  0  0  0
 11 17  1  0  0  0  0
 11 12  1  0  0  0  0
 11 31  1  0  0  0  0
 12 13  1  0  0  0  0
 12 32  1  0  0  0  0
 12 33  1  0  0  0  0
 13 14  1  0  0  0  0
 13 34  1  0  0  0  0
 13 35  1  0  0  0  0
 14 15  1  0  0  0  0
 14 36  1  0  0  0  0
 14 37  1  0  0  0  0
 15 16  1  0  0  0  0
 15 17  1  0  0  0  0
 15 38  1  0  0  0  0
 16 39  1  0  0  0  0
 16 40  1  0  0  0  0
 16 41  1  0  0  0  0
 17 42  1  0  0  0  0
 17 43  1  0  0  0  0
 18 19  2  0  0  0  0
 18 20  1  0  0  0  0
 20 21  1  0  0  0  0
M  END
> <s_m_source_file>
AV-unprocessed.smi

> <i_m_source_file_index>
2198

> <i_lp_mmshare_version>
43012

> <i_f3d_flags>
0

> <s_epik_input>
W0NIM11jMW5jKFtDSDNdKWMoYyg9TylbbkhdMSlbQ0gyXUMoPU8pW05IXVtDQEBIXTJbQ0gyXVtDSDJdW0NIMl1bQ0BASF0oW0NIM10pW0NIMl0y

> <s_epik_cmdline>
J2VwaWtfcHl0aG9uJywgJy1waCcsICc3LjAnLCAnLXRuJywgJzgnLCAnLW1hJywgJzIwMCcsICctbWV0YWxfYmluZGluZycsICctaW1hZScsICc8aW5maWxlLm1hZT4nLCAnLW9tYWUnLCAnPG91dGZpbGUubWFlPic=

> <r_lp_tautomer_probability>
0.839158

> <r_epik_Ionization_Penalty>
0.000372587

> <r_epik_Ionization_Penalty_Charging>
0.000337977

> <r_epik_Ionization_Penalty_Neutral>
3.46101e-05

> <r_epik_State_Penalty>
0.09125

> <r_epik_Charging_Adjusted_Penalty>
0.091588

> <i_epik_Tot_Q>
0

> <i_epik_Tot_abs_Q>
0

> <r_epik_Metal_State_Penalty>
0.25197

> <b_epik_Metal_Only>
0

> <s_lp_Force_Field>
OPLS_2005

> <r_lp_Energy>
10.2455

> <b_lp_Chiralities_Consistent>
1

> <s_lp_Variant>
AV-unprocessed.smi:2198-1

> <Gold.Version>
5.8.1

> <Gold.Id.Protein>
6NUR|6NUR_protein|mol2

> <Gold.PLP.Fitness>
43.1721

> <Gold.PLP.PLP>
-38.1966

> <Gold.PLP.part.hbond>
-4.0000

> <Gold.PLP.part.metal>
0.0000

> <Gold.PLP.part.buried>
4.5011

> <Gold.PLP.part.nonpolar>
-38.0242

> <Gold.PLP.part.repulsive>
0.5107

> <Gold.PLP.ligand.clash>
0.0000

> <Gold.PLP.ligand.torsion>
0.4059

> <Gold.PLP.Chemscore.Hbond>
1.9263

> <Gold.PLP.Chemscore.CHOScore>
0.0000

> <Gold.PLP.Chemscore.Metal>
0.0000

> <Gold.Chemscore.Hbonds>
donor molecule, donor type, donor heavy atom, donor atom, acceptor molecule, acceptor atom, score
      L1  H    20    21       P1  7948  1.00
      P1  H  7989  7998       L1    19  1.00

> <Gold.PLP.Chemscore.Internal.Correction>
0.0087

> <Gold.Rescore>
     Score         DG    S(hbond)    S(metal)    S(lipo)     H(rot)  DE(clash)    DE(int)     intcor
     18.19     -19.34       1.49        0.00     108.26       1.48       0.84       0.30       ----

> <Gold.Chemscore.Fitness>
18.1950

> <Gold.Chemscore.DG>
-19.3426

> <Gold.Chemscore.ZeroCoef>
-5.4800

> <Gold.Chemscore.Hbond>
1.4927

> <Gold.Chemscore.Metal>
0.0000

> <Gold.Chemscore.Lipo>
108.2587

> <Gold.Chemscore.Internal_Hbond>
0.0000

> <Gold.Chemscore.DEClash>
0.8434

> <Gold.Chemscore.DEInternal>
0.3043

> <Gold.Chemscore.Rot>
1.4801

> <Gold.Chemscore.Internal.Correction>
   9.000000E+99

> <Gold.Chemscore.Hbonds>
donor molecule, donor type, donor heavy atom, donor atom, acceptor molecule, acceptor atom, score
      L1  H    20    21       P1  7948  0.98
      P1  H  7989  7998       L1    19  0.29

> <Gold.Chemscore.Hbond.Weighted>
-4.9855

> <Gold.Chemscore.Metal.Weighted>
-0.0000

> <Gold.Chemscore.Lipo.Weighted>
-12.6663

> <Gold.Chemscore.Internal_Hbond.Weighted>
0.0000

> <Gold.Chemscore.DEClash.Weighted>
0.8434

> <Gold.Chemscore.DEInternal.Weighted>
0.3043

> <Gold.Chemscore.Rot.Weighted>
3.7891

> <Gold.Chemscore.Internal.Correction.Weighted>
   9.000000E+99

> <Gold.Protein.RotatedTorsions>
[ 6907 6896 6895 6894 ] final   10.67 input  -60.11 | X-H torsion
[ 7974 7965 7964 7962 ] final  -76.67 input  175.53 | X-H torsion
[ 8008 7997 7996 7995 ] final  143.72 input   59.86 | X-H torsion
[ 10167 10162 10161 10158 ] final  129.18 input  -65.29 | X-H torsion
[ 10718 10713 10712 10709 ] final   42.27 input   66.30 | X-H torsion
[ 10763 10752 10751 10750 ] final  -65.13 input  -60.55 | X-H torsion
[ 11005 11000 10999 10996 ] final   -1.91 input  -57.11 | X-H torsion

> <Gold.Protein.ActiveResidues>
 VAL166  LYS551  ARG553  GLY616  TRP617  ASP618  TYR619  PRO620  LYS621  CYS622 
 ASP623  PHE694  ASN695  SER759  ASP760  ASP761  ALA762  ILE779  LEU786  VAL792 
 PHE793  MET794  SER795  GLU796  ALA797  LYS798  CYS799  TRP800  GLU811  SER814 

> <Gold.Protein.RotatedAtoms>
  151.7420  135.0852  160.0316 H   0  0  0  0  0  0  0  0  0  0  0  0  # atno 6907 bound_to 6896
  152.3473  133.6133  159.5928 H   0  0  0  0  0  0  0  0  0  0  0  0  # atno 6908 bound_to 6896
  150.7517  133.9545  159.3538 H   0  0  0  0  0  0  0  0  0  0  0  0  # atno 6909 bound_to 6896
  145.6098  140.9389  143.1196 H   0  0  0  0  0  0  0  0  0  0  0  0  # atno 7974 bound_to 7965
  156.2924  140.2255  156.4936 H   0  0  0  0  0  0  0  0  0  0  0  0  # atno 8008 bound_to 7997
  154.7749  140.0464  157.1103 H   0  0  0  0  0  0  0  0  0  0  0  0  # atno 8009 bound_to 7997
  154.9828  140.3080  155.4942 H   0  0  0  0  0  0  0  0  0  0  0  0  # atno 8010 bound_to 7997
  139.5490  144.6797  151.4382 H   0  0  0  0  0  0  0  0  0  0  0  0  # atno 10167 bound_to 10162
  157.4030  130.7871  149.7365 H   0  0  0  0  0  0  0  0  0  0  0  0  # atno 10718 bound_to 10713
  154.3405  135.6158  153.5594 H   0  0  0  0  0  0  0  0  0  0  0  0  # atno 10763 bound_to 10752
  152.9804  135.5768  154.4859 H   0  0  0  0  0  0  0  0  0  0  0  0  # atno 10764 bound_to 10752
  154.4562  135.2854  155.1723 H   0  0  0  0  0  0  0  0  0  0  0  0  # atno 10765 bound_to 10752
  140.6525  133.9391  155.8388 H   0  0  0  0  0  0  0  0  0  0  0  0  # atno 11005 bound_to 11000
  144.7275  139.7830  143.7359 LP  0  0  0  0  0  0  0  0  0  0  0  0  # atno 17320 bound_to 7965
  146.1513  139.4597  143.0047 LP  0  0  0  0  0  0  0  0  0  0  0  0  # atno 17321 bound_to 7965
  140.6747  143.8216  150.7043 LP  0  0  0  0  0  0  0  0  0  0  0  0  # atno 17342 bound_to 10162
  140.1651  143.4242  152.2040 LP  0  0  0  0  0  0  0  0  0  0  0  0  # atno 17343 bound_to 10162
  155.9828  130.4006  150.3395 LP  0  0  0  0  0  0  0  0  0  0  0  0  # atno 17370 bound_to 10713
  157.1524  131.0324  151.2879 LP  0  0  0  0  0  0  0  0  0  0  0  0  # atno 17371 bound_to 10713
  141.0526  134.0463  157.3764 LP  0  0  0  0  0  0  0  0  0  0  0  0  # atno 17394 bound_to 11000
  139.9041  135.0174  156.7404 LP  0  0  0  0  0  0  0  0  0  0  0  0  # atno 17395 bound_to 11000

$$$$
