AV-unprocessed.smi:240|AV-procd|sdf|1837|dock7
  -GOLD-   2262020443D 1   1.00000     0.00000
 Structure written by MMmdl.
 55 59  0  0  0  0  0  0  0  0  1 V2000
  145.3752  140.6218  154.7793 O   0  0  0  0  0  0  0  0  0  0  0  0
  146.2081  139.5746  154.3131 C   0  0  1  0  0  0  0  0  0  0  0  0
  147.1836  140.1485  153.2836 C   0  0  0  0  0  0  0  0  0  0  0  0
  148.3619  140.6955  154.0954 C   0  0  0  0  0  0  0  0  0  0  0  0
  148.2155  140.1159  155.5092 C   0  0  0  0  0  0  0  0  0  0  0  0
  147.1148  139.0357  155.4394 C   0  0  1  0  0  0  0  0  0  0  0  0
  146.3841  138.6667  156.7756 C   0  0  1  0  0  0  0  0  0  0  0  0
  146.2123  139.9305  157.6609 C   0  0  0  0  0  0  0  0  0  0  0  0
  145.5227  139.6288  158.8673 O   0  0  0  0  0  0  0  0  0  0  0  0
  144.2083  139.1578  158.6161 C   0  0  0  0  0  0  0  0  0  0  0  0
  144.3065  137.8543  157.8184 C   0  0  0  0  0  0  0  0  0  0  0  0
  145.0518  138.0660  156.5807 N   0  0  0  0  0  0  0  0  0  0  0  0
  144.9743  136.9553  155.8170 C   0  0  0  0  0  0  0  0  0  0  0  0
  145.4968  135.8155  156.3323 N   0  0  0  0  0  0  0  0  0  0  0  0
  145.4365  134.6786  155.6324 C   0  0  0  0  0  0  0  0  0  0  0  0
  144.9089  134.4687  154.4242 N   0  0  0  0  0  0  0  0  0  0  0  0
  144.3976  135.6192  153.8983 C   0  0  0  0  0  0  0  0  0  0  0  0
  144.3976  136.9003  154.5164 C   0  0  0  0  0  0  0  0  0  0  0  0
  143.7992  137.8327  153.6776 N   0  0  0  0  0  0  0  0  0  0  0  0
  143.4522  137.1385  152.6283 C   0  0  0  0  0  0  0  0  0  0  0  0
  143.7604  135.7978  152.6831 N   0  0  0  0  0  0  0  0  0  0  0  0
  143.4800  134.7939  151.6686 C   0  0  0  0  0  0  0  0  0  0  0  0
  144.6972  134.4492  150.7730 C   0  0  2  0  0  0  0  0  0  0  0  0
  145.1283  135.6224  150.1076 O   0  0  0  0  0  0  0  0  0  0  0  0
  144.4256  133.3574  149.7360 C   0  0  0  0  0  0  0  0  0  0  0  0
  144.9329  132.1037  150.4317 C   0  0  0  0  0  0  0  0  0  0  0  0
  146.1170  132.5661  151.0575 O   0  0  0  0  0  0  0  0  0  0  0  0
  145.8577  133.8568  151.5989 C   0  0  0  0  0  0  0  0  0  0  0  0
  144.6253  140.6872  154.2079 H   0  0  0  0  0  0  0  0  0  0  0  0
  145.5870  138.7951  153.8706 H   0  0  0  0  0  0  0  0  0  0  0  0
  147.5383  139.3425  152.6398 H   0  0  0  0  0  0  0  0  0  0  0  0
  146.7308  140.9015  152.6371 H   0  0  0  0  0  0  0  0  0  0  0  0
  149.3096  140.4035  153.6413 H   0  0  0  0  0  0  0  0  0  0  0  0
  148.3390  141.7854  154.1309 H   0  0  0  0  0  0  0  0  0  0  0  0
  149.1690  139.7231  155.8594 H   0  0  0  0  0  0  0  0  0  0  0  0
  147.9152  140.9123  156.1908 H   0  0  0  0  0  0  0  0  0  0  0  0
  147.5793  138.1250  155.0565 H   0  0  0  0  0  0  0  0  0  0  0  0
  147.0005  137.9579  157.3291 H   0  0  0  0  0  0  0  0  0  0  0  0
  147.1777  140.3445  157.9481 H   0  0  0  0  0  0  0  0  0  0  0  0
  145.6817  140.7154  157.1190 H   0  0  0  0  0  0  0  0  0  0  0  0
  143.7039  138.9822  159.5662 H   0  0  0  0  0  0  0  0  0  0  0  0
  143.6286  139.9083  158.0765 H   0  0  0  0  0  0  0  0  0  0  0  0
  144.8003  137.0922  158.4229 H   0  0  0  0  0  0  0  0  0  0  0  0
  143.3034  137.4875  157.5946 H   0  0  0  0  0  0  0  0  0  0  0  0
  145.8682  133.8121  156.1109 H   0  0  0  0  0  0  0  0  0  0  0  0
  142.9503  137.5869  151.7832 H   0  0  0  0  0  0  0  0  0  0  0  0
  143.1129  133.8970  152.1695 H   0  0  0  0  0  0  0  0  0  0  0  0
  142.6551  135.1559  151.0534 H   0  0  0  0  0  0  0  0  0  0  0  0
  145.3012  135.4070  149.2038 H   0  0  0  0  0  0  0  0  0  0  0  0
  143.3869  133.2741  149.4202 H   0  0  0  0  0  0  0  0  0  0  0  0
  145.0232  133.5214  148.8377 H   0  0  0  0  0  0  0  0  0  0  0  0
  144.2235  131.7570  151.1849 H   0  0  0  0  0  0  0  0  0  0  0  0
  145.1342  131.2867  149.7385 H   0  0  0  0  0  0  0  0  0  0  0  0
  146.7639  134.4631  151.5626 H   0  0  0  0  0  0  0  0  0  0  0  0
  145.5837  133.7465  152.6492 H   0  0  0  0  0  0  0  0  0  0  0  0
  1  2  1  0  0  0  0
  1 29  1  0  0  0  0
  2  6  1  0  0  0  0
  2  3  1  0  0  0  0
  2 30  1  0  0  0  0
  3  4  1  0  0  0  0
  3 31  1  0  0  0  0
  3 32  1  0  0  0  0
  4  5  1  0  0  0  0
  4 33  1  0  0  0  0
  4 34  1  0  0  0  0
  5  6  1  0  0  0  0
  5 35  1  0  0  0  0
  5 36  1  0  0  0  0
  6  7  1  0  0  0  0
  6 37  1  0  0  0  0
  7 12  1  0  0  0  0
  7  8  1  0  0  0  0
  7 38  1  0  0  0  0
  8  9  1  0  0  0  0
  8 39  1  0  0  0  0
  8 40  1  0  0  0  0
  9 10  1  0  0  0  0
 10 11  1  0  0  0  0
 10 41  1  0  0  0  0
 10 42  1  0  0  0  0
 11 12  1  0  0  0  0
 11 43  1  0  0  0  0
 11 44  1  0  0  0  0
 12 13  1  0  0  0  0
 13 18  1  0  0  0  0
 13 14  2  0  0  0  0
 14 15  1  0  0  0  0
 15 16  2  0  0  0  0
 15 45  1  0  0  0  0
 16 17  1  0  0  0  0
 17 21  1  0  0  0  0
 17 18  2  0  0  0  0
 18 19  1  0  0  0  0
 19 20  2  0  0  0  0
 20 21  1  0  0  0  0
 20 46  1  0  0  0  0
 21 22  1  0  0  0  0
 22 23  1  0  0  0  0
 22 47  1  0  0  0  0
 22 48  1  0  0  0  0
 23 28  1  0  0  0  0
 23 24  1  0  0  0  0
 23 25  1  0  0  0  0
 24 49  1  0  0  0  0
 25 26  1  0  0  0  0
 25 50  1  0  0  0  0
 25 51  1  0  0  0  0
 26 27  1  0  0  0  0
 26 52  1  0  0  0  0
 26 53  1  0  0  0  0
 27 28  1  0  0  0  0
 28 54  1  0  0  0  0
 28 55  1  0  0  0  0
M  END
> <s_m_source_file>
AV-unprocessed.smi

> <i_m_source_file_index>
240

> <i_lp_mmshare_version>
43012

> <i_f3d_flags>
0

> <s_epik_input>
W09IXVtDQEBIXTFbQ0gyXVtDSDJdW0NIMl1bQ0BIXTFbQ0BASF0yW0NIMl1PW0NIMl1bQ0gyXU4yYyhuW2NIXW4zKWMoYzM0KW5bY0hdbjRbQ0gyXVtDQEBdNShbT0hdKVtDSDJdW0NIMl1PW0NIMl01

> <s_epik_cmdline>
J2VwaWtfcHl0aG9uJywgJy1waCcsICc3LjAnLCAnLXRuJywgJzgnLCAnLW1hJywgJzIwMCcsICctbWV0YWxfYmluZGluZycsICctaW1hZScsICc8aW5maWxlLm1hZT4nLCAnLW9tYWUnLCAnPG91dGZpbGUubWFlPic=

> <r_lp_tautomer_probability>
1

> <r_epik_Ionization_Penalty>
0.000130618

> <r_epik_Ionization_Penalty_Charging>
0

> <r_epik_Ionization_Penalty_Neutral>
0.000130618

> <r_epik_State_Penalty>
-0

> <r_epik_Charging_Adjusted_Penalty>
0

> <i_epik_Tot_Q>
0

> <i_epik_Tot_abs_Q>
0

> <r_epik_Metal_State_Penalty>
-0

> <b_epik_Metal_Only>
0

> <s_lp_Force_Field>
OPLS_2005

> <r_lp_Energy>
64.0442

> <b_lp_Chiralities_Consistent>
1

> <s_lp_Variant>
AV-unprocessed.smi:240-14

> <Gold.Version>
5.8.1

> <Gold.Id.Protein>
6NUR|6NUR_protein|mol2

> <Gold.PLP.Fitness>
35.0589

> <Gold.PLP.PLP>
-27.6620

> <Gold.PLP.part.hbond>
-3.4007

> <Gold.PLP.part.metal>
0.0000

> <Gold.PLP.part.buried>
-5.1252

> <Gold.PLP.part.nonpolar>
-19.9477

> <Gold.PLP.part.repulsive>
1.4811

> <Gold.PLP.ligand.clash>
0.0000

> <Gold.PLP.ligand.torsion>
0.8876

> <Gold.PLP.Chemscore.Hbond>
2.0000

> <Gold.PLP.Chemscore.CHOScore>
0.9725

> <Gold.PLP.Chemscore.Metal>
0.0000

> <Gold.Chemscore.Hbonds>
donor molecule, donor type, donor heavy atom, donor atom, acceptor molecule, acceptor atom, score
      L1  H     1    29       P1 10175  1.00
      L1  H    24    49       P1  7921  1.00
      L1  C    20    46       P1 10171  1.00

> <Gold.PLP.Chemscore.Internal.Correction>
0.2546

> <Gold.Rescore>
     Score         DG    S(hbond)    S(metal)    S(lipo)     H(rot)  DE(clash)    DE(int)     intcor
      9.43     -11.39       1.99        0.00      59.43       3.00       1.00       0.96       ----

> <Gold.Chemscore.Fitness>
9.4313

> <Gold.Chemscore.DG>
-11.3885

> <Gold.Chemscore.ZeroCoef>
-5.4800

> <Gold.Chemscore.Hbond>
1.9894

> <Gold.Chemscore.Metal>
0.0000

> <Gold.Chemscore.Lipo>
59.4342

> <Gold.Chemscore.Internal_Hbond>
0.0000

> <Gold.Chemscore.DEClash>
1.0008

> <Gold.Chemscore.DEInternal>
0.9563

> <Gold.Chemscore.Rot>
3.0039

> <Gold.Chemscore.Internal.Correction>
   9.000000E+99

> <Gold.Chemscore.Hbonds>
donor molecule, donor type, donor heavy atom, donor atom, acceptor molecule, acceptor atom, score
      L1  H     1    29       P1 10175  0.96
      L1  H    24    49       P1  7921  1.00

> <Gold.Chemscore.Hbond.Weighted>
-6.6446

> <Gold.Chemscore.Metal.Weighted>
-0.0000

> <Gold.Chemscore.Lipo.Weighted>
-6.9538

> <Gold.Chemscore.Internal_Hbond.Weighted>
0.0000

> <Gold.Chemscore.DEClash.Weighted>
1.0008

> <Gold.Chemscore.DEInternal.Weighted>
0.9563

> <Gold.Chemscore.Rot.Weighted>
7.6899

> <Gold.Chemscore.Internal.Correction.Weighted>
   9.000000E+99

> <Gold.Protein.RotatedTorsions>
[ 6907 6896 6895 6894 ] final -117.60 input  -60.11 | X-H torsion
[ 7974 7965 7964 7962 ] final  -67.83 input  175.53 | X-H torsion
[ 8008 7997 7996 7995 ] final   69.26 input   59.86 | X-H torsion
[ 10167 10162 10161 10158 ] final   -7.37 input  -65.29 | X-H torsion
[ 10718 10713 10712 10709 ] final -168.04 input   66.30 | X-H torsion
[ 10763 10752 10751 10750 ] final   27.90 input  -60.55 | X-H torsion
[ 11005 11000 10999 10996 ] final  -97.23 input  -57.11 | X-H torsion

> <Gold.Protein.ActiveResidues>
 VAL166  LYS551  ARG553  GLY616  TRP617  ASP618  TYR619  PRO620  LYS621  CYS622 
 ASP623  PHE694  ASN695  SER759  ASP760  ASP761  ALA762  ILE779  LEU786  VAL792 
 PHE793  MET794  SER795  GLU796  ALA797  LYS798  CYS799  TRP800  GLU811  SER814 

> <Gold.Protein.RotatedAtoms>
  150.8150  133.8354  159.3164 H   0  0  0  0  0  0  0  0  0  0  0  0  # atno 6907 bound_to 6896
  151.6129  135.1037  160.0094 H   0  0  0  0  0  0  0  0  0  0  0  0  # atno 6908 bound_to 6896
  152.4241  133.7125  159.6544 H   0  0  0  0  0  0  0  0  0  0  0  0  # atno 6909 bound_to 6896
  145.7242  140.9025  143.0614 H   0  0  0  0  0  0  0  0  0  0  0  0  # atno 7974 bound_to 7965
  155.7208  140.3493  155.5015 H   0  0  0  0  0  0  0  0  0  0  0  0  # atno 8008 bound_to 7997
  155.9271  140.1077  157.1183 H   0  0  0  0  0  0  0  0  0  0  0  0  # atno 8009 bound_to 7997
  154.4079  140.1238  156.4741 H   0  0  0  0  0  0  0  0  0  0  0  0  # atno 8010 bound_to 7997
  140.7027  143.6088  150.8724 H   0  0  0  0  0  0  0  0  0  0  0  0  # atno 10167 bound_to 10162
  156.6911  130.9160  151.3069 H   0  0  0  0  0  0  0  0  0  0  0  0  # atno 10718 bound_to 10713
  153.0526  135.6526  154.0655 H   0  0  0  0  0  0  0  0  0  0  0  0  # atno 10763 bound_to 10752
  154.0340  135.2909  155.3366 H   0  0  0  0  0  0  0  0  0  0  0  0  # atno 10764 bound_to 10752
  154.6823  135.5315  153.8347 H   0  0  0  0  0  0  0  0  0  0  0  0  # atno 10765 bound_to 10752
  141.1386  133.8155  157.0678 H   0  0  0  0  0  0  0  0  0  0  0  0  # atno 11005 bound_to 11000
  144.6909  139.9243  143.7469 LP  0  0  0  0  0  0  0  0  0  0  0  0  # atno 17320 bound_to 7965
  146.0598  139.3592  143.0588 LP  0  0  0  0  0  0  0  0  0  0  0  0  # atno 17321 bound_to 7965
  139.9811  143.5950  152.2942 LP  0  0  0  0  0  0  0  0  0  0  0  0  # atno 17342 bound_to 10162
  139.6571  144.7662  151.2034 LP  0  0  0  0  0  0  0  0  0  0  0  0  # atno 17343 bound_to 10162
  157.7008  130.9331  150.0780 LP  0  0  0  0  0  0  0  0  0  0  0  0  # atno 17370 bound_to 10713
  156.1797  130.3649  149.9052 LP  0  0  0  0  0  0  0  0  0  0  0  0  # atno 17371 bound_to 10713
  140.0530  134.9795  157.1171 LP  0  0  0  0  0  0  0  0  0  0  0  0  # atno 17394 bound_to 11000
  140.3961  134.2133  155.7164 LP  0  0  0  0  0  0  0  0  0  0  0  0  # atno 17395 bound_to 11000

$$$$
