AV-unprocessed.smi:1041|AV-procd|sdf|4531|dock1
  -GOLD-   22720 2553D 1   1.00000     0.00000
 Structure written by MMmdl.
 53 54  0  0  0  0  0  0  0  0  2 V2000
  151.3236  145.1962  160.0754 C   0  0  0  0  0  0  0  0  0  0  0  0
  152.5042  144.4735  159.7719 O   0  0  0  0  0  0  0  0  0  0  0  0
  152.2720  143.4073  158.8666 C   0  0  0  0  0  0  0  0  0  0  0  0
  151.6278  143.9694  157.5898 C   0  0  0  0  0  0  0  0  0  0  0  0
  150.4942  143.1400  157.1072 N   0  3  2  0  0  0  0  0  0  0  0  0
  149.6307  142.6731  158.2230 C   0  0  0  0  0  0  0  0  0  0  0  0
  148.3967  141.9106  157.7037 C   0  0  0  0  0  0  0  0  0  0  0  0
  148.7806  140.7339  156.7879 C   0  0  2  0  0  0  0  0  0  0  0  0
  149.3620  139.5417  157.5844 C   0  0  0  0  0  0  0  0  0  0  0  0
  148.5160  138.3580  157.4808 N   0  0  0  0  0  0  0  0  0  0  0  0
  147.2086  138.3056  157.7796 C   0  0  0  0  0  0  0  0  0  0  0  0
  146.5433  139.2875  158.1079 O   0  0  0  0  0  0  0  0  0  0  0  0
  146.5656  136.9200  157.7477 C   0  0  0  0  0  0  0  0  0  0  0  0
  146.7252  136.1217  159.0395 C   0  0  0  0  0  0  0  0  0  0  0  0
  147.2682  134.8783  159.0828 C   0  0  0  0  0  0  0  0  0  0  0  0
  147.7985  134.1294  157.8727 C   0  0  0  0  0  0  0  0  0  0  0  0
  147.3754  134.1858  160.2761 N   0  0  0  0  0  0  0  0  0  0  0  0
  146.9004  134.7955  161.4254 C   0  0  0  0  0  0  0  0  0  0  0  0
  147.0598  133.9525  162.6722 C   0  0  0  0  0  0  0  0  0  0  0  0
  146.3625  135.9757  161.4850 N   0  0  0  0  0  0  0  0  0  0  0  0
  146.2365  136.7228  160.3031 C   0  0  0  0  0  0  0  0  0  0  0  0
  145.7234  137.8409  160.3259 O   0  0  0  0  0  0  0  0  0  0  0  0
  149.6998  141.2652  155.6680 C   0  0  0  0  0  0  0  0  0  0  0  0
  150.9181  142.0151  156.2317 C   0  0  0  0  0  0  0  0  0  0  0  0
  147.7926  133.2661  160.2652 H   0  0  0  0  0  0  0  0  0  0  0  0
  151.5573  146.0065  160.7659 H   0  0  0  0  0  0  0  0  0  0  0  0
  150.5794  144.5546  160.5492 H   0  0  0  0  0  0  0  0  0  0  0  0
  150.8871  145.6352  159.1775 H   0  0  0  0  0  0  0  0  0  0  0  0
  153.1979  142.8739  158.6511 H   0  0  0  0  0  0  0  0  0  0  0  0
  151.5913  142.6874  159.3238 H   0  0  0  0  0  0  0  0  0  0  0  0
  151.2874  144.9928  157.7534 H   0  0  0  0  0  0  0  0  0  0  0  0
  152.3995  144.0226  156.8205 H   0  0  0  0  0  0  0  0  0  0  0  0
  150.2139  142.0475  158.8996 H   0  0  0  0  0  0  0  0  0  0  0  0
  149.2942  143.5314  158.8059 H   0  0  0  0  0  0  0  0  0  0  0  0
  147.7947  141.5579  158.5419 H   0  0  0  0  0  0  0  0  0  0  0  0
  147.7624  142.6032  157.1486 H   0  0  0  0  0  0  0  0  0  0  0  0
  147.8653  140.3753  156.3144 H   0  0  0  0  0  0  0  0  0  0  0  0
  150.3826  139.3199  157.2716 H   0  0  0  0  0  0  0  0  0  0  0  0
  149.4263  139.8063  158.6403 H   0  0  0  0  0  0  0  0  0  0  0  0
  148.9734  137.4957  157.2212 H   0  0  0  0  0  0  0  0  0  0  0  0
  145.5068  137.0476  157.5228 H   0  0  0  0  0  0  0  0  0  0  0  0
  146.9579  136.3490  156.9047 H   0  0  0  0  0  0  0  0  0  0  0  0
  148.6297  134.6726  157.4227 H   0  0  0  0  0  0  0  0  0  0  0  0
  147.0162  134.0104  157.1233 H   0  0  0  0  0  0  0  0  0  0  0  0
  148.1565  133.1346  158.1411 H   0  0  0  0  0  0  0  0  0  0  0  0
  146.4835  134.3681  163.4996 H   0  0  0  0  0  0  0  0  0  0  0  0
  148.1077  133.9141  162.9705 H   0  0  0  0  0  0  0  0  0  0  0  0
  146.7119  132.9341  162.4950 H   0  0  0  0  0  0  0  0  0  0  0  0
  150.0255  140.4607  155.0088 H   0  0  0  0  0  0  0  0  0  0  0  0
  149.1302  141.9465  155.0346 H   0  0  0  0  0  0  0  0  0  0  0  0
  151.5114  142.3863  155.3975 H   0  0  0  0  0  0  0  0  0  0  0  0
  151.5601  141.3339  156.7914 H   0  0  0  0  0  0  0  0  0  0  0  0
  149.9172  143.7492  156.5443 H   0  0  0  0  0  0  0  0  0  0  0  0
  1  2  1  0  0  0  0
  1 26  1  0  0  0  0
  1 27  1  0  0  0  0
  1 28  1  0  0  0  0
  2  3  1  0  0  0  0
  3  4  1  0  0  0  0
  3 29  1  0  0  0  0
  3 30  1  0  0  0  0
  4  5  1  0  0  0  0
  4 31  1  0  0  0  0
  4 32  1  0  0  0  0
  5 24  1  0  0  0  0
  5  6  1  0  0  0  0
  5 53  1  0  0  0  0
  6  7  1  0  0  0  0
  6 33  1  0  0  0  0
  6 34  1  0  0  0  0
  7  8  1  0  0  0  0
  7 35  1  0  0  0  0
  7 36  1  0  0  0  0
  8  9  1  0  0  0  0
  8 23  1  0  0  0  0
  8 37  1  0  0  0  0
  9 10  1  0  0  0  0
  9 38  1  0  0  0  0
  9 39  1  0  0  0  0
 10 11  1  0  0  0  0
 10 40  1  0  0  0  0
 11 12  2  0  0  0  0
 11 13  1  0  0  0  0
 13 41  1  0  0  0  0
 13 42  1  0  0  0  0
 13 14  1  0  0  0  0
 14 21  1  0  0  0  0
 14 15  2  0  0  0  0
 15 16  1  0  0  0  0
 15 17  1  0  0  0  0
 16 43  1  0  0  0  0
 16 44  1  0  0  0  0
 16 45  1  0  0  0  0
 17 25  1  0  0  0  0
 17 18  1  0  0  0  0
 18 19  1  0  0  0  0
 18 20  2  0  0  0  0
 19 46  1  0  0  0  0
 19 47  1  0  0  0  0
 19 48  1  0  0  0  0
 20 21  1  0  0  0  0
 21 22  2  0  0  0  0
 23 24  1  0  0  0  0
 23 49  1  0  0  0  0
 23 50  1  0  0  0  0
 24 51  1  0  0  0  0
 24 52  1  0  0  0  0
M  CHG  1   5   1
M  END
> <s_m_source_file>
AV-unprocessed.smi

> <i_m_source_file_index>
1041

> <i_lp_mmshare_version>
43012

> <i_f3d_flags>
0

> <s_epik_input>
W0NIM11PW0NIMl1bQ0gyXU4xW0NIMl1bQ0gyXVtDSF0oW0NIMl1bQ0gyXTEpW0NIMl1bTkhdQyg9TylbQ0gyXWMyYyhbQ0gzXSluYyhbQ0gzXSlbbkhdYzI9Tw==

> <s_epik_cmdline>
J2VwaWtfcHl0aG9uJywgJy1waCcsICc3LjAnLCAnLXRuJywgJzgnLCAnLW1hJywgJzIwMCcsICctbWV0YWxfYmluZGluZycsICctaW1hZScsICc8aW5maWxlLm1hZT4nLCAnLW9tYWUnLCAnPG91dGZpbGUubWFlPic=

> <r_lp_tautomer_probability>
0.156392

> <r_epik_Ionization_Penalty>
0.0240251

> <r_epik_Ionization_Penalty_Charging>
0.0239146

> <r_epik_Ionization_Penalty_Neutral>
0.000110474

> <r_epik_State_Penalty>
1.15942

> <r_epik_Charging_Adjusted_Penalty>
1.18333

> <i_epik_Tot_Q>
1

> <i_epik_Tot_abs_Q>
1

> <r_epik_Metal_State_Penalty>
1.33297

> <b_epik_Metal_Only>
0

> <s_lp_Force_Field>
OPLS_2005

> <r_lp_Energy>
25.6342

> <b_lp_Chiralities_Consistent>
1

> <s_lp_Variant>
AV-unprocessed.smi:1041-4

> <Gold.Version>
5.8.1

> <Gold.Id.Protein>
6NUR|6NUR_protein|mol2

> <Gold.PLP.Fitness>
40.1714

> <Gold.PLP.PLP>
-34.2936

> <Gold.PLP.part.hbond>
-2.9708

> <Gold.PLP.part.metal>
0.0000

> <Gold.PLP.part.buried>
-5.5270

> <Gold.PLP.part.nonpolar>
-26.2913

> <Gold.PLP.part.repulsive>
0.1874

> <Gold.PLP.ligand.clash>
0.0000

> <Gold.PLP.ligand.torsion>
1.6799

> <Gold.PLP.Chemscore.Hbond>
3.0000

> <Gold.PLP.Chemscore.CHOScore>
0.0000

> <Gold.PLP.Chemscore.Metal>
0.0000

> <Gold.Chemscore.Hbonds>
donor molecule, donor type, donor heavy atom, donor atom, acceptor molecule, acceptor atom, score
      L1  H     5    53       P1  8028  2.00
      P1  H  6934  6947       L1    22  0.98

> <Gold.PLP.Chemscore.Internal.Correction>
0.2375

> <Gold.Rescore>
     Score         DG    S(hbond)    S(metal)    S(lipo)     H(rot)  DE(clash)    DE(int)     intcor
     11.42     -14.53       1.69        0.00      82.17       2.43       0.08       3.03       ----

> <Gold.Chemscore.Fitness>
11.4184

> <Gold.Chemscore.DG>
-14.5278

> <Gold.Chemscore.ZeroCoef>
-5.4800

> <Gold.Chemscore.Hbond>
1.6922

> <Gold.Chemscore.Metal>
0.0000

> <Gold.Chemscore.Lipo>
82.1739

> <Gold.Chemscore.Internal_Hbond>
0.0000

> <Gold.Chemscore.DEClash>
0.0772

> <Gold.Chemscore.DEInternal>
3.0322

> <Gold.Chemscore.Rot>
2.4291

> <Gold.Chemscore.Internal.Correction>
   9.000000E+99

> <Gold.Chemscore.Hbonds>
donor molecule, donor type, donor heavy atom, donor atom, acceptor molecule, acceptor atom, score
      L1  H     5    53       P1  8028  1.00
      P1  H  6934  6947       L1    22  0.51

> <Gold.Chemscore.Hbond.Weighted>
-5.6521

> <Gold.Chemscore.Metal.Weighted>
-0.0000

> <Gold.Chemscore.Lipo.Weighted>
-9.6143

> <Gold.Chemscore.Internal_Hbond.Weighted>
0.0000

> <Gold.Chemscore.DEClash.Weighted>
0.0772

> <Gold.Chemscore.DEInternal.Weighted>
3.0322

> <Gold.Chemscore.Rot.Weighted>
6.2186

> <Gold.Chemscore.Internal.Correction.Weighted>
   9.000000E+99

> <Gold.Protein.RotatedTorsions>
[ 6907 6896 6895 6894 ] final   66.42 input  -60.11 | X-H torsion
[ 7974 7965 7964 7962 ] final  142.01 input  175.53 | X-H torsion
[ 8008 7997 7996 7995 ] final  -56.91 input   59.86 | X-H torsion
[ 10167 10162 10161 10158 ] final   67.16 input  -65.29 | X-H torsion
[ 10718 10713 10712 10709 ] final   62.96 input   66.30 | X-H torsion
[ 10763 10752 10751 10750 ] final -145.61 input  -60.55 | X-H torsion
[ 11005 11000 10999 10996 ] final   42.53 input  -57.11 | X-H torsion

> <Gold.Protein.ActiveResidues>
 VAL166  LYS551  ARG553  GLY616  TRP617  ASP618  TYR619  PRO620  LYS621  CYS622 
 ASP623  PHE694  ASN695  SER759  ASP760  ASP761  ALA762  ILE779  LEU786  VAL792 
 PHE793  MET794  SER795  GLU796  ALA797  LYS798  CYS799  TRP800  GLU811  SER814 

> <Gold.Protein.RotatedAtoms>
  152.4480  134.5455  159.9851 H   0  0  0  0  0  0  0  0  0  0  0  0  # atno 6907 bound_to 6896
  151.5535  133.3408  159.2965 H   0  0  0  0  0  0  0  0  0  0  0  0  # atno 6908 bound_to 6896
  150.8401  134.7721  159.6988 H   0  0  0  0  0  0  0  0  0  0  0  0  # atno 6909 bound_to 6896
  144.9045  139.5377  143.5738 H   0  0  0  0  0  0  0  0  0  0  0  0  # atno 7974 bound_to 7965
  154.4248  140.1119  156.5713 H   0  0  0  0  0  0  0  0  0  0  0  0  # atno 8008 bound_to 7997
  155.6209  140.3495  155.4633 H   0  0  0  0  0  0  0  0  0  0  0  0  # atno 8009 bound_to 7997
  156.0025  140.1202  157.0523 H   0  0  0  0  0  0  0  0  0  0  0  0  # atno 8010 bound_to 7997
  140.0925  144.4975  150.7089 H   0  0  0  0  0  0  0  0  0  0  0  0  # atno 10167 bound_to 10162
  157.5938  130.9079  149.9655 H   0  0  0  0  0  0  0  0  0  0  0  0  # atno 10718 bound_to 10713
  154.8375  135.3408  154.6532 H   0  0  0  0  0  0  0  0  0  0  0  0  # atno 10763 bound_to 10752
  153.7146  135.6962  153.5033 H   0  0  0  0  0  0  0  0  0  0  0  0  # atno 10764 bound_to 10752
  153.2427  135.4379  155.0668 H   0  0  0  0  0  0  0  0  0  0  0  0  # atno 10765 bound_to 10752
  140.1730  134.4198  155.8245 H   0  0  0  0  0  0  0  0  0  0  0  0  # atno 11005 bound_to 11000
  146.3126  139.7802  142.9008 LP  0  0  0  0  0  0  0  0  0  0  0  0  # atno 17320 bound_to 7965
  145.3559  141.0316  143.3312 LP  0  0  0  0  0  0  0  0  0  0  0  0  # atno 17321 bound_to 7965
  140.7021  143.2442  151.4835 LP  0  0  0  0  0  0  0  0  0  0  0  0  # atno 17342 bound_to 10162
  139.5716  144.1914  152.1845 LP  0  0  0  0  0  0  0  0  0  0  0  0  # atno 17343 bound_to 10162
  156.0997  130.3656  150.0241 LP  0  0  0  0  0  0  0  0  0  0  0  0  # atno 17370 bound_to 10713
  156.8358  130.9408  151.3634 LP  0  0  0  0  0  0  0  0  0  0  0  0  # atno 17371 bound_to 10713
  141.2218  133.6965  156.7798 LP  0  0  0  0  0  0  0  0  0  0  0  0  # atno 17394 bound_to 11000
  140.2355  134.8653  157.3520 LP  0  0  0  0  0  0  0  0  0  0  0  0  # atno 17395 bound_to 11000

$$$$
