AV-unprocessed.smi:702|AV-procd|sdf|3420|dock4
  -GOLD-   22720 0403D 1   1.00000     0.00000
 Structure written by MMmdl.
 51 53  0  0  0  0  0  0  0  0  3 V2000
  146.2562  137.2311  155.5481 C   0  0  0  0  0  0  0  0  0  0  0  0
  146.6228  137.8937  154.2004 C   0  0  2  0  0  0  0  0  0  0  0  0
  146.7764  136.8397  153.1926 N   0  0  0  0  0  0  0  0  0  0  0  0
  145.8477  135.9450  152.8232 C   0  0  0  0  0  0  0  0  0  0  0  0
  144.7011  135.9312  153.2679 O   0  0  0  0  0  0  0  0  0  0  0  0
  146.3440  135.0785  151.9224 N   0  0  0  0  0  0  0  0  0  0  0  0
  145.7155  133.9518  151.3224 C   0  0  0  0  0  0  0  0  0  0  0  0
  144.3413  133.7587  151.5886 C   0  0  0  0  0  0  0  0  0  0  0  0
  143.6699  132.6542  151.0260 C   0  0  0  0  0  0  0  0  0  0  0  0
  144.3447  131.7850  150.2440 N   0  3  0  0  0  0  0  0  0  0  0  0
  145.6601  131.9189  149.9709 C   0  0  0  0  0  0  0  0  0  0  0  0
  146.3850  133.0034  150.5066 C   0  0  0  0  0  0  0  0  0  0  0  0
  147.8722  138.8528  154.2016 C   0  0  0  0  0  0  0  0  0  0  0  0
  149.1500  138.0392  154.2148 N   0  3  0  0  0  0  0  0  0  0  0  0
  150.4148  138.8326  154.2342 C   0  0  0  0  0  0  0  0  0  0  0  0
  151.6326  137.9159  154.0370 C   0  0  0  0  0  0  0  0  0  0  0  0
  151.6608  136.9352  155.0631 O   0  0  0  0  0  0  0  0  0  0  0  0
  150.5066  136.1094  155.0275 C   0  0  0  0  0  0  0  0  0  0  0  0
  149.2470  136.9639  155.2492 C   0  0  0  0  0  0  0  0  0  0  0  0
  147.8454  139.8265  152.9864 C   0  0  0  0  0  0  0  0  0  0  0  0
  147.4542  141.2017  153.5315 C   0  0  0  0  0  0  0  0  0  0  0  0
  148.0361  141.2165  154.9397 C   0  0  0  0  0  0  0  0  0  0  0  0
  147.7897  139.7947  155.4459 C   0  0  0  0  0  0  0  0  0  0  0  0
  146.0943  137.9661  156.3353 H   0  0  0  0  0  0  0  0  0  0  0  0
  147.0048  136.5244  155.9023 H   0  0  0  0  0  0  0  0  0  0  0  0
  145.3242  136.6728  155.4515 H   0  0  0  0  0  0  0  0  0  0  0  0
  145.7341  138.4797  153.9764 H   0  0  0  0  0  0  0  0  0  0  0  0
  147.6897  136.7642  152.7684 H   0  0  0  0  0  0  0  0  0  0  0  0
  147.3216  135.1933  151.6974 H   0  0  0  0  0  0  0  0  0  0  0  0
  143.7991  134.4533  152.2144 H   0  0  0  0  0  0  0  0  0  0  0  0
  142.6216  132.4415  151.1775 H   0  0  0  0  0  0  0  0  0  0  0  0
  146.0927  131.1567  149.3392 H   0  0  0  0  0  0  0  0  0  0  0  0
  147.4382  133.0759  150.2853 H   0  0  0  0  0  0  0  0  0  0  0  0
  150.4489  139.5832  153.4509 H   0  0  0  0  0  0  0  0  0  0  0  0
  150.5141  139.3664  155.1795 H   0  0  0  0  0  0  0  0  0  0  0  0
  151.6066  137.4386  153.0559 H   0  0  0  0  0  0  0  0  0  0  0  0
  152.5526  138.4987  154.0831 H   0  0  0  0  0  0  0  0  0  0  0  0
  150.4537  135.5760  154.0769 H   0  0  0  0  0  0  0  0  0  0  0  0
  150.5904  135.3553  155.8103 H   0  0  0  0  0  0  0  0  0  0  0  0
  149.2799  137.3972  156.2487 H   0  0  0  0  0  0  0  0  0  0  0  0
  148.3975  136.2862  155.2350 H   0  0  0  0  0  0  0  0  0  0  0  0
  148.8275  139.9280  152.5273 H   0  0  0  0  0  0  0  0  0  0  0  0
  147.1813  139.4980  152.1867 H   0  0  0  0  0  0  0  0  0  0  0  0
  147.8287  142.0189  152.9143 H   0  0  0  0  0  0  0  0  0  0  0  0
  146.3686  141.2930  153.5794 H   0  0  0  0  0  0  0  0  0  0  0  0
  149.1060  141.4236  154.8974 H   0  0  0  0  0  0  0  0  0  0  0  0
  147.5758  141.9736  155.5753 H   0  0  0  0  0  0  0  0  0  0  0  0
  146.7968  139.7874  155.8884 H   0  0  0  0  0  0  0  0  0  0  0  0
  148.4382  139.5133  156.2741 H   0  0  0  0  0  0  0  0  0  0  0  0
  149.1499  137.5529  153.3298 H   0  0  0  0  0  0  0  0  0  0  0  0
  143.8405  130.9918  149.8460 H   0  0  0  0  0  0  0  0  0  0  0  0
  1  2  1  0  0  0  0
  1 24  1  0  0  0  0
  1 25  1  0  0  0  0
  1 26  1  0  0  0  0
  2  3  1  0  0  0  0
  2 13  1  0  0  0  0
  2 27  1  0  0  0  0
  3  4  1  0  0  0  0
  3 28  1  0  0  0  0
  4  5  2  0  0  0  0
  4  6  1  0  0  0  0
  6  7  1  0  0  0  0
  6 29  1  0  0  0  0
  7 12  1  0  0  0  0
  7  8  2  0  0  0  0
  8  9  1  0  0  0  0
  8 30  1  0  0  0  0
  9 10  2  0  0  0  0
  9 31  1  0  0  0  0
 10 11  1  0  0  0  0
 10 51  1  0  0  0  0
 11 12  2  0  0  0  0
 11 32  1  0  0  0  0
 12 33  1  0  0  0  0
 13 23  1  0  0  0  0
 13 14  1  0  0  0  0
 13 20  1  0  0  0  0
 14 19  1  0  0  0  0
 14 15  1  0  0  0  0
 14 50  1  0  0  0  0
 15 16  1  0  0  0  0
 15 34  1  0  0  0  0
 15 35  1  0  0  0  0
 16 17  1  0  0  0  0
 16 36  1  0  0  0  0
 16 37  1  0  0  0  0
 17 18  1  0  0  0  0
 18 19  1  0  0  0  0
 18 38  1  0  0  0  0
 18 39  1  0  0  0  0
 19 40  1  0  0  0  0
 19 41  1  0  0  0  0
 20 21  1  0  0  0  0
 20 42  1  0  0  0  0
 20 43  1  0  0  0  0
 21 22  1  0  0  0  0
 21 44  1  0  0  0  0
 21 45  1  0  0  0  0
 22 23  1  0  0  0  0
 22 46  1  0  0  0  0
 22 47  1  0  0  0  0
 23 48  1  0  0  0  0
 23 49  1  0  0  0  0
M  CHG  1  10   1
M  CHG  1  14   1
M  END
> <s_m_source_file>
AV-unprocessed.smi

> <i_m_source_file_index>
702

> <i_lp_mmshare_version>
43012

> <i_f3d_flags>
0

> <s_epik_input>
W0NIMl0xW0NIMl1PW0NIMl1bQ0gyXU4xQzIoW0NIMl1bQ0gyXVtDSDJdW0NIMl0yKVtDQEhdKFtDSDNdKVtOSF1DKD1PKVtOSF1jM1tjSF1bY0hdbltjSF1bY0hdMw==

> <s_epik_cmdline>
J2VwaWtfcHl0aG9uJywgJy1waCcsICc3LjAnLCAnLXRuJywgJzgnLCAnLW1hJywgJzIwMCcsICctbWV0YWxfYmluZGluZycsICctaW1hZScsICc8aW5maWxlLm1hZT4nLCAnLW9tYWUnLCAnPG91dGZpbGUubWFlPic=

> <r_epik_Ionization_Penalty>
1.42147

> <r_epik_Ionization_Penalty_Charging>
1.42145

> <r_epik_Ionization_Penalty_Neutral>
1.94713e-05

> <r_epik_State_Penalty>
1.44789

> <r_epik_Charging_Adjusted_Penalty>
2.86934

> <i_epik_Tot_Q>
2

> <i_epik_Tot_abs_Q>
2

> <r_epik_Metal_State_Penalty>
1.5401

> <b_epik_Metal_Only>
0

> <s_lp_Force_Field>
OPLS_2005

> <r_lp_Energy>
70.747

> <b_lp_Chiralities_Consistent>
1

> <s_lp_Variant>
AV-unprocessed.smi:702-5

> <Gold.Version>
5.8.1

> <Gold.Id.Protein>
6NUR|6NUR_protein|mol2

> <Gold.PLP.Fitness>
48.8282

> <Gold.PLP.PLP>
-34.5766

> <Gold.PLP.part.hbond>
-4.0000

> <Gold.PLP.part.metal>
0.0000

> <Gold.PLP.part.buried>
-3.3429

> <Gold.PLP.part.nonpolar>
-28.0947

> <Gold.PLP.part.repulsive>
0.3417

> <Gold.PLP.ligand.clash>
0.0000

> <Gold.PLP.ligand.torsion>
0.4511

> <Gold.PLP.Chemscore.Hbond>
5.0000

> <Gold.PLP.Chemscore.CHOScore>
0.0000

> <Gold.PLP.Chemscore.Metal>
0.0000

> <Gold.Chemscore.Hbonds>
donor molecule, donor type, donor heavy atom, donor atom, acceptor molecule, acceptor atom, score
      L1  H     3    28       P1  7948  1.00
      L1  H     6    29       P1  7948  1.00
      L1  H    14    50       P1  7948  2.00
      P1  H 10752 10764       L1    17  0.90

> <Gold.PLP.Chemscore.Internal.Correction>
0.1539

> <Gold.Rescore>
     Score         DG    S(hbond)    S(metal)    S(lipo)     H(rot)  DE(clash)    DE(int)     intcor
     19.17     -23.75       3.32        0.00      93.62       1.48       1.57       3.00       ----

> <Gold.Chemscore.Fitness>
19.1743

> <Gold.Chemscore.DG>
-23.7462

> <Gold.Chemscore.ZeroCoef>
-5.4800

> <Gold.Chemscore.Hbond>
3.3229

> <Gold.Chemscore.Metal>
0.0000

> <Gold.Chemscore.Lipo>
93.6151

> <Gold.Chemscore.Internal_Hbond>
0.0000

> <Gold.Chemscore.DEClash>
1.5681

> <Gold.Chemscore.DEInternal>
3.0038

> <Gold.Chemscore.Rot>
1.4787

> <Gold.Chemscore.Internal.Correction>
   9.000000E+99

> <Gold.Chemscore.Hbonds>
donor molecule, donor type, donor heavy atom, donor atom, acceptor molecule, acceptor atom, score
      L1  H     3    28       P1  7948  0.99
      L1  H     6    29       P1  7948  0.88
      L1  H    14    50       P1  7948  0.98
      P1  H 10752 10764       L1    17  0.15

> <Gold.Chemscore.Hbond.Weighted>
-11.0986

> <Gold.Chemscore.Metal.Weighted>
-0.0000

> <Gold.Chemscore.Lipo.Weighted>
-10.9530

> <Gold.Chemscore.Internal_Hbond.Weighted>
0.0000

> <Gold.Chemscore.DEClash.Weighted>
1.5681

> <Gold.Chemscore.DEInternal.Weighted>
3.0038

> <Gold.Chemscore.Rot.Weighted>
3.7854

> <Gold.Chemscore.Internal.Correction.Weighted>
   9.000000E+99

> <Gold.Protein.RotatedTorsions>
[ 6907 6896 6895 6894 ] final   81.91 input  -60.11 | X-H torsion
[ 7974 7965 7964 7962 ] final  126.43 input  175.53 | X-H torsion
[ 8008 7997 7996 7995 ] final    1.47 input   59.86 | X-H torsion
[ 10167 10162 10161 10158 ] final  100.97 input  -65.29 | X-H torsion
[ 10718 10713 10712 10709 ] final -129.43 input   66.30 | X-H torsion
[ 10763 10752 10751 10750 ] final  -45.20 input  -60.55 | X-H torsion
[ 11005 11000 10999 10996 ] final  -52.85 input  -57.11 | X-H torsion

> <Gold.Protein.ActiveResidues>
 VAL166  LYS551  ARG553  GLY616  TRP617  ASP618  TYR619  PRO620  LYS621  CYS622 
 ASP623  PHE694  ASN695  SER759  ASP760  ASP761  ALA762  ILE779  LEU786  VAL792 
 PHE793  MET794  SER795  GLU796  ALA797  LYS798  CYS799  TRP800  GLU811  SER814 

> <Gold.Protein.RotatedAtoms>
  152.5283  134.3130  159.9120 H   0  0  0  0  0  0  0  0  0  0  0  0  # atno 6907 bound_to 6896
  151.3080  133.4086  159.2652 H   0  0  0  0  0  0  0  0  0  0  0  0  # atno 6908 bound_to 6896
  151.0063  134.9378  159.8039 H   0  0  0  0  0  0  0  0  0  0  0  0  # atno 6909 bound_to 6896
  145.0618  139.3799  143.5002 H   0  0  0  0  0  0  0  0  0  0  0  0  # atno 7974 bound_to 7965
  154.6801  140.2631  155.6917 H   0  0  0  0  0  0  0  0  0  0  0  0  # atno 8008 bound_to 7997
  156.2693  140.2812  156.1265 H   0  0  0  0  0  0  0  0  0  0  0  0  # atno 8009 bound_to 7997
  155.1044  140.0375  157.2696 H   0  0  0  0  0  0  0  0  0  0  0  0  # atno 8010 bound_to 7997
  139.7480  144.6992  151.0475 H   0  0  0  0  0  0  0  0  0  0  0  0  # atno 10167 bound_to 10162
  156.2046  130.6879  151.0579 H   0  0  0  0  0  0  0  0  0  0  0  0  # atno 10718 bound_to 10713
  154.0247  135.6664  153.4775 H   0  0  0  0  0  0  0  0  0  0  0  0  # atno 10763 bound_to 10752
  153.0565  135.5053  154.7990 H   0  0  0  0  0  0  0  0  0  0  0  0  # atno 10764 bound_to 10752
  154.6916  135.3062  154.9436 H   0  0  0  0  0  0  0  0  0  0  0  0  # atno 10765 bound_to 10752
  141.0946  133.6627  156.4085 H   0  0  0  0  0  0  0  0  0  0  0  0  # atno 11005 bound_to 11000
  146.3525  140.0320  142.8649 LP  0  0  0  0  0  0  0  0  0  0  0  0  # atno 17320 bound_to 7965
  145.1399  140.9565  143.4495 LP  0  0  0  0  0  0  0  0  0  0  0  0  # atno 17321 bound_to 7965
  140.7794  143.4844  150.9976 LP  0  0  0  0  0  0  0  0  0  0  0  0  # atno 17342 bound_to 10162
  139.8532  143.7411  152.3177 LP  0  0  0  0  0  0  0  0  0  0  0  0  # atno 17343 bound_to 10162
  157.7005  131.0778  150.6836 LP  0  0  0  0  0  0  0  0  0  0  0  0  # atno 17370 bound_to 10713
  156.6894  130.4590  149.5604 LP  0  0  0  0  0  0  0  0  0  0  0  0  # atno 17371 bound_to 10713
  140.5171  134.6339  157.5305 LP  0  0  0  0  0  0  0  0  0  0  0  0  # atno 17394 bound_to 11000
  139.9779  134.7185  155.9914 LP  0  0  0  0  0  0  0  0  0  0  0  0  # atno 17395 bound_to 11000

$$$$
