AV-unprocessed.smi:1762|AV-procd|sdf|7107|dock1
  -GOLD-   22720 8333D 1   1.00000     0.00000
 Structure written by MMmdl.
 53 54  0  0  0  0  0  0  0  0  2 V2000
  153.1053  138.7306  154.5396 C   0  0  0  0  0  0  0  0  0  0  0  0
  151.9670  138.4131  155.5251 C   0  0  2  0  0  0  0  0  0  0  0  0
  150.5639  138.6729  154.9422 C   0  0  0  0  0  0  0  0  0  0  0  0
  150.2223  140.0982  154.8432 N   0  0  0  0  0  0  0  0  0  0  0  0
  148.8796  140.3246  154.2366 C   0  0  1  0  0  0  0  0  0  0  0  0
  147.9008  139.1401  154.4313 C   0  0  0  0  0  0  0  0  0  0  0  0
  147.5977  138.7556  155.5605 O   0  0  0  0  0  0  0  0  0  0  0  0
  147.4428  138.5486  153.3159 N   0  0  0  0  0  0  0  0  0  0  0  0
  146.5753  137.3747  153.2857 C   0  0  0  0  0  0  0  0  0  0  0  0
  145.9726  137.0956  151.8950 C   0  0  0  0  0  0  0  0  0  0  0  0
  145.7174  135.6230  151.6252 C   0  0  0  0  0  0  0  0  0  0  0  0
  144.4388  135.1376  151.2747 C   0  0  0  0  0  0  0  0  0  0  0  0
  144.2638  133.7562  151.0487 C   0  0  0  0  0  0  0  0  0  0  0  0
  145.3694  132.8900  151.1778 C   0  0  0  0  0  0  0  0  0  0  0  0
  146.6238  133.4283  151.5299 C   0  0  0  0  0  0  0  0  0  0  0  0
  146.7501  134.7571  151.7390 N   0  3  0  0  0  0  0  0  0  0  0  0
  148.2167  141.6897  154.6269 C   0  0  0  0  0  0  0  0  0  0  0  0
  147.5912  141.7039  156.0366 C   0  0  0  0  0  0  0  0  0  0  0  0
  147.2075  142.2107  153.5856 C   0  0  0  0  0  0  0  0  0  0  0  0
  150.4242  140.7187  156.1626 C   0  0  0  0  0  0  0  0  0  0  0  0
  151.8441  140.4942  156.7145 C   0  0  1  0  0  0  0  0  0  0  0  0
  152.0094  141.0603  158.1294 C   0  0  0  0  0  0  0  0  0  0  0  0
  152.1247  139.0997  156.7644 O   0  0  0  0  0  0  0  0  0  0  0  0
  153.0351  138.1017  153.6517 H   0  0  0  0  0  0  0  0  0  0  0  0
  154.0775  138.5477  154.9971 H   0  0  0  0  0  0  0  0  0  0  0  0
  153.0818  139.7672  154.2040 H   0  0  0  0  0  0  0  0  0  0  0  0
  152.0397  137.3501  155.7570 H   0  0  0  0  0  0  0  0  0  0  0  0
  150.5255  138.1885  153.9688 H   0  0  0  0  0  0  0  0  0  0  0  0
  149.8258  138.1659  155.5662 H   0  0  0  0  0  0  0  0  0  0  0  0
  149.0338  140.3815  153.1569 H   0  0  0  0  0  0  0  0  0  0  0  0
  147.7516  138.9129  152.4258 H   0  0  0  0  0  0  0  0  0  0  0  0
  147.1677  136.5164  153.6040 H   0  0  0  0  0  0  0  0  0  0  0  0
  145.7787  137.4844  154.0235 H   0  0  0  0  0  0  0  0  0  0  0  0
  145.0322  137.6381  151.7921 H   0  0  0  0  0  0  0  0  0  0  0  0
  146.6307  137.4898  151.1189 H   0  0  0  0  0  0  0  0  0  0  0  0
  143.6010  135.8134  151.1823 H   0  0  0  0  0  0  0  0  0  0  0  0
  143.2928  133.3656  150.7806 H   0  0  0  0  0  0  0  0  0  0  0  0
  145.2563  131.8289  151.0092 H   0  0  0  0  0  0  0  0  0  0  0  0
  147.5226  132.8415  151.6509 H   0  0  0  0  0  0  0  0  0  0  0  0
  149.0004  142.4454  154.6268 H   0  0  0  0  0  0  0  0  0  0  0  0
  146.7326  141.0378  156.1124 H   0  0  0  0  0  0  0  0  0  0  0  0
  147.2465  142.7048  156.2969 H   0  0  0  0  0  0  0  0  0  0  0  0
  148.3112  141.4057  156.7990 H   0  0  0  0  0  0  0  0  0  0  0  0
  146.2978  141.6105  153.5614 H   0  0  0  0  0  0  0  0  0  0  0  0
  147.6420  142.2128  152.5859 H   0  0  0  0  0  0  0  0  0  0  0  0
  146.9105  143.2350  153.8125 H   0  0  0  0  0  0  0  0  0  0  0  0
  150.2794  141.7978  156.1198 H   0  0  0  0  0  0  0  0  0  0  0  0
  149.6885  140.3298  156.8688 H   0  0  0  0  0  0  0  0  0  0  0  0
  152.5684  140.9865  156.0651 H   0  0  0  0  0  0  0  0  0  0  0  0
  151.8260  142.1349  158.1463 H   0  0  0  0  0  0  0  0  0  0  0  0
  153.0199  140.8903  158.5014 H   0  0  0  0  0  0  0  0  0  0  0  0
  151.3144  140.5909  158.8264 H   0  0  0  0  0  0  0  0  0  0  0  0
  147.6666  135.1249  151.9959 H   0  0  0  0  0  0  0  0  0  0  0  0
  1  2  1  0  0  0  0
  1 24  1  0  0  0  0
  1 25  1  0  0  0  0
  1 26  1  0  0  0  0
  2 23  1  0  0  0  0
  2  3  1  0  0  0  0
  2 27  1  0  0  0  0
  3  4  1  0  0  0  0
  3 28  1  0  0  0  0
  3 29  1  0  0  0  0
  4  5  1  0  0  0  0
  4 20  1  0  0  0  0
  5  6  1  0  0  0  0
  5 17  1  0  0  0  0
  5 30  1  0  0  0  0
  6  7  2  0  0  0  0
  6  8  1  0  0  0  0
  8  9  1  0  0  0  0
  8 31  1  0  0  0  0
  9 10  1  0  0  0  0
  9 32  1  0  0  0  0
  9 33  1  0  0  0  0
 10 11  1  0  0  0  0
 10 34  1  0  0  0  0
 10 35  1  0  0  0  0
 11 16  1  0  0  0  0
 11 12  2  0  0  0  0
 12 13  1  0  0  0  0
 12 36  1  0  0  0  0
 13 14  2  0  0  0  0
 13 37  1  0  0  0  0
 14 15  1  0  0  0  0
 14 38  1  0  0  0  0
 15 16  2  0  0  0  0
 15 39  1  0  0  0  0
 16 53  1  0  0  0  0
 17 18  1  0  0  0  0
 17 19  1  0  0  0  0
 17 40  1  0  0  0  0
 18 41  1  0  0  0  0
 18 42  1  0  0  0  0
 18 43  1  0  0  0  0
 19 44  1  0  0  0  0
 19 45  1  0  0  0  0
 19 46  1  0  0  0  0
 20 21  1  0  0  0  0
 20 47  1  0  0  0  0
 20 48  1  0  0  0  0
 21 22  1  0  0  0  0
 21 23  1  0  0  0  0
 21 49  1  0  0  0  0
 22 50  1  0  0  0  0
 22 51  1  0  0  0  0
 22 52  1  0  0  0  0
M  CHG  1  16   1
M  END
> <s_m_source_file>
AV-unprocessed.smi

> <i_m_source_file_index>
1762

> <i_lp_mmshare_version>
43012

> <i_f3d_flags>
0

> <s_epik_input>
W0NIM11bQ0BASF0xW0NIMl1OKFtDSDJdW0NASF0oTzEpW0NIM10pW0NAQEhdKFtDSF0oW0NIM10pW0NIM10pQyg9TylbTkhdW0NIMl1bQ0gyXWMyW2NIXVtjSF1bY0hdW2NIXW4y

> <s_epik_cmdline>
J2VwaWtfcHl0aG9uJywgJy1waCcsICc3LjAnLCAnLXRuJywgJzgnLCAnLW1hJywgJzIwMCcsICctbWV0YWxfYmluZGluZycsICctaW1hZScsICc8aW5maWxlLm1hZT4nLCAnLW9tYWUnLCAnPG91dGZpbGUubWFlPic=

> <r_epik_Ionization_Penalty>
1.86475

> <r_epik_Ionization_Penalty_Charging>
1.85347

> <r_epik_Ionization_Penalty_Neutral>
0.0112771

> <r_epik_State_Penalty>
1.99714

> <r_epik_Charging_Adjusted_Penalty>
3.85061

> <i_epik_Tot_Q>
1

> <i_epik_Tot_abs_Q>
1

> <r_epik_Metal_State_Penalty>
2.02271

> <b_epik_Metal_Only>
0

> <s_lp_Force_Field>
OPLS_2005

> <r_lp_Energy>
36.6316

> <b_lp_Chiralities_Consistent>
1

> <s_lp_Variant>
AV-unprocessed.smi:1762-9

> <Gold.Version>
5.8.1

> <Gold.Id.Protein>
6NUR|6NUR_protein|mol2

> <Gold.PLP.Fitness>
45.1711

> <Gold.PLP.PLP>
-38.8283

> <Gold.PLP.part.hbond>
-2.5351

> <Gold.PLP.part.metal>
0.0000

> <Gold.PLP.part.buried>
-4.0449

> <Gold.PLP.part.nonpolar>
-31.1453

> <Gold.PLP.part.repulsive>
0.1734

> <Gold.PLP.ligand.clash>
0.0000

> <Gold.PLP.ligand.torsion>
1.4838

> <Gold.PLP.Chemscore.Hbond>
2.9263

> <Gold.PLP.Chemscore.CHOScore>
0.0000

> <Gold.PLP.Chemscore.Metal>
0.0000

> <Gold.Chemscore.Hbonds>
donor molecule, donor type, donor heavy atom, donor atom, acceptor molecule, acceptor atom, score
      L1  H    16    53       P1  7948  2.00
      P1  H  7989  7998       L1     4  0.84

> <Gold.PLP.Chemscore.Internal.Correction>
0.5316

> <Gold.Rescore>
     Score         DG    S(hbond)    S(metal)    S(lipo)     H(rot)  DE(clash)    DE(int)     intcor
     13.30     -17.24       1.14        0.00     105.43       1.72       0.28       3.65       ----

> <Gold.Chemscore.Fitness>
13.2995

> <Gold.Chemscore.DG>
-17.2377

> <Gold.Chemscore.ZeroCoef>
-5.4800

> <Gold.Chemscore.Hbond>
1.1434

> <Gold.Chemscore.Metal>
0.0000

> <Gold.Chemscore.Lipo>
105.4292

> <Gold.Chemscore.Internal_Hbond>
0.0000

> <Gold.Chemscore.DEClash>
0.2837

> <Gold.Chemscore.DEInternal>
3.6545

> <Gold.Chemscore.Rot>
1.7174

> <Gold.Chemscore.Internal.Correction>
   9.000000E+99

> <Gold.Chemscore.Hbonds>
donor molecule, donor type, donor heavy atom, donor atom, acceptor molecule, acceptor atom, score
      L1  H     8    31       P1  7957  0.02
      L1  H    16    53       P1  7948  0.88
      P1  H  7989  7998       L1     4  0.14

> <Gold.Chemscore.Hbond.Weighted>
-3.8191

> <Gold.Chemscore.Metal.Weighted>
-0.0000

> <Gold.Chemscore.Lipo.Weighted>
-12.3352

> <Gold.Chemscore.Internal_Hbond.Weighted>
0.0000

> <Gold.Chemscore.DEClash.Weighted>
0.2837

> <Gold.Chemscore.DEInternal.Weighted>
3.6545

> <Gold.Chemscore.Rot.Weighted>
4.3966

> <Gold.Chemscore.Internal.Correction.Weighted>
   9.000000E+99

> <Gold.Protein.RotatedTorsions>
[ 6907 6896 6895 6894 ] final -146.54 input  -60.11 | X-H torsion
[ 7974 7965 7964 7962 ] final   57.79 input  175.53 | X-H torsion
[ 8008 7997 7996 7995 ] final -128.81 input   59.86 | X-H torsion
[ 10167 10162 10161 10158 ] final    4.83 input  -65.29 | X-H torsion
[ 10718 10713 10712 10709 ] final  -74.67 input   66.30 | X-H torsion
[ 10763 10752 10751 10750 ] final  -13.37 input  -60.55 | X-H torsion
[ 11005 11000 10999 10996 ] final   18.95 input  -57.11 | X-H torsion

> <Gold.Protein.ActiveResidues>
 VAL166  LYS551  ARG553  GLY616  TRP617  ASP618  TYR619  PRO620  LYS621  CYS622 
 ASP623  PHE694  ASN695  SER759  ASP760  ASP761  ALA762  ILE779  LEU786  VAL792 
 PHE793  MET794  SER795  GLU796  ALA797  LYS798  CYS799  TRP800  GLU811  SER814 

> <Gold.Protein.RotatedAtoms>
  151.1431  133.4957  159.2596 H   0  0  0  0  0  0  0  0  0  0  0  0  # atno 6907 bound_to 6896
  151.1633  135.0283  159.8730 H   0  0  0  0  0  0  0  0  0  0  0  0  # atno 6908 bound_to 6896
  152.5462  134.1303  159.8489 H   0  0  0  0  0  0  0  0  0  0  0  0  # atno 6909 bound_to 6896
  145.9252  139.3762  143.0454 H   0  0  0  0  0  0  0  0  0  0  0  0  # atno 7974 bound_to 7965
  155.2688  140.0439  157.3005 H   0  0  0  0  0  0  0  0  0  0  0  0  # atno 8008 bound_to 7997
  154.5665  140.2361  155.8224 H   0  0  0  0  0  0  0  0  0  0  0  0  # atno 8009 bound_to 7997
  156.2089  140.3004  155.9697 H   0  0  0  0  0  0  0  0  0  0  0  0  # atno 8010 bound_to 7997
  140.6514  143.7535  150.7581 H   0  0  0  0  0  0  0  0  0  0  0  0  # atno 10167 bound_to 10162
  156.0234  130.4422  150.2927 H   0  0  0  0  0  0  0  0  0  0  0  0  # atno 10718 bound_to 10713
  153.5123  135.7016  153.5774 H   0  0  0  0  0  0  0  0  0  0  0  0  # atno 10763 bound_to 10752
  153.3860  135.3908  155.1890 H   0  0  0  0  0  0  0  0  0  0  0  0  # atno 10764 bound_to 10752
  154.8702  135.3846  154.4604 H   0  0  0  0  0  0  0  0  0  0  0  0  # atno 10765 bound_to 10752
  140.4191  134.1537  155.7671 H   0  0  0  0  0  0  0  0  0  0  0  0  # atno 11005 bound_to 11000
  145.8498  140.9535  143.0755 LP  0  0  0  0  0  0  0  0  0  0  0  0  # atno 17320 bound_to 7965
  144.6757  140.0392  143.7481 LP  0  0  0  0  0  0  0  0  0  0  0  0  # atno 17321 bound_to 7965
  140.1187  143.4632  152.2326 LP  0  0  0  0  0  0  0  0  0  0  0  0  # atno 17342 bound_to 10162
  139.5730  144.7473  151.3840 LP  0  0  0  0  0  0  0  0  0  0  0  0  # atno 17343 bound_to 10162
  157.1031  131.0201  151.3078 LP  0  0  0  0  0  0  0  0  0  0  0  0  # atno 17370 bound_to 10713
  157.4764  130.7739  149.7372 LP  0  0  0  0  0  0  0  0  0  0  0  0  # atno 17371 bound_to 10713
  141.1791  133.8452  157.1320 LP  0  0  0  0  0  0  0  0  0  0  0  0  # atno 17394 bound_to 11000
  140.0213  134.9944  157.0596 LP  0  0  0  0  0  0  0  0  0  0  0  0  # atno 17395 bound_to 11000

$$$$
