AV-unprocessed.smi:366|AV-procd|sdf|2430|dock1
  -GOLD-   2262022373D 1   1.00000     0.00000
 Structure written by MMmdl.
 50 51  0  0  0  0  0  0  0  0  1 V2000
  149.2785  133.5999  153.7595 C   0  0  0  0  0  0  0  0  0  0  0  0
  147.7792  133.5927  153.4800 C   0  0  0  0  0  0  0  0  0  0  0  0
  147.0718  132.7029  153.9511 O   0  0  0  0  0  0  0  0  0  0  0  0
  147.3060  134.5905  152.7161 N   0  0  0  0  0  0  0  0  0  0  0  0
  145.9030  134.7820  152.3424 C   0  0  1  0  0  0  0  0  0  0  0  0
  145.5794  136.2871  152.4064 C   0  0  0  0  0  0  0  0  0  0  0  0
  144.4600  136.6736  152.7472 O   0  0  0  0  0  0  0  0  0  0  0  0
  146.5790  137.1234  152.0923 N   0  0  0  0  0  0  0  0  0  0  0  0
  146.4724  138.5745  152.1013 C   0  0  0  0  0  0  0  0  0  0  0  0
  147.5109  139.2037  153.0072 C   0  0  0  0  0  0  0  0  0  0  0  0
  147.5941  140.6019  153.1517 C   0  0  0  0  0  0  0  0  0  0  0  0
  148.5825  141.1414  153.9967 C   0  0  0  0  0  0  0  0  0  0  0  0
  149.4677  140.2668  154.6722 C   0  0  0  0  0  0  0  0  0  0  0  0
  150.4683  140.7855  155.5230 N   0  0  0  0  0  0  0  0  0  0  0  0
  150.0871  141.8296  156.4728 C   0  0  0  0  0  0  0  0  0  0  0  0
  151.3377  142.4705  157.0975 C   0  0  0  0  0  0  0  0  0  0  0  0
  152.1495  141.4608  157.6869 O   0  0  0  0  0  0  0  0  0  0  0  0
  152.6032  140.5173  156.7223 C   0  0  0  0  0  0  0  0  0  0  0  0
  151.3988  139.8067  156.0809 C   0  0  0  0  0  0  0  0  0  0  0  0
  149.3792  138.9204  154.5301 N   0  0  0  0  0  0  0  0  0  0  0  0
  148.4299  138.4078  153.7190 C   0  0  0  0  0  0  0  0  0  0  0  0
  145.6891  134.2523  150.8936 C   0  0  0  0  0  0  0  0  0  0  0  0
  144.2809  134.5578  150.3411 C   0  0  0  0  0  0  0  0  0  0  0  0
  145.9512  132.7367  150.7910 C   0  0  0  0  0  0  0  0  0  0  0  0
  149.8090  134.2635  153.0754 H   0  0  0  0  0  0  0  0  0  0  0  0
  149.6898  132.5965  153.6472 H   0  0  0  0  0  0  0  0  0  0  0  0
  149.4673  133.9358  154.7791 H   0  0  0  0  0  0  0  0  0  0  0  0
  147.9614  135.2812  152.3809 H   0  0  0  0  0  0  0  0  0  0  0  0
  145.2585  134.2300  153.0300 H   0  0  0  0  0  0  0  0  0  0  0  0
  147.4685  136.7279  151.8240 H   0  0  0  0  0  0  0  0  0  0  0  0
  146.5947  138.9621  151.0885 H   0  0  0  0  0  0  0  0  0  0  0  0
  145.4751  138.8649  152.4356 H   0  0  0  0  0  0  0  0  0  0  0  0
  146.9114  141.2532  152.6261 H   0  0  0  0  0  0  0  0  0  0  0  0
  148.6396  142.2116  154.1262 H   0  0  0  0  0  0  0  0  0  0  0  0
  149.4995  142.6002  155.9721 H   0  0  0  0  0  0  0  0  0  0  0  0
  149.4606  141.3958  157.2535 H   0  0  0  0  0  0  0  0  0  0  0  0
  151.9089  143.0212  156.3482 H   0  0  0  0  0  0  0  0  0  0  0  0
  151.0479  143.1868  157.8660 H   0  0  0  0  0  0  0  0  0  0  0  0
  153.2078  141.0178  155.9643 H   0  0  0  0  0  0  0  0  0  0  0  0
  153.2492  139.7903  157.2142 H   0  0  0  0  0  0  0  0  0  0  0  0
  150.8745  139.2120  156.8300 H   0  0  0  0  0  0  0  0  0  0  0  0
  151.7609  139.1131  155.3238 H   0  0  0  0  0  0  0  0  0  0  0  0
  148.4057  137.3313  153.6351 H   0  0  0  0  0  0  0  0  0  0  0  0
  146.4071  134.7443  150.2349 H   0  0  0  0  0  0  0  0  0  0  0  0
  143.5057  134.1378  150.9826 H   0  0  0  0  0  0  0  0  0  0  0  0
  144.1506  134.1339  149.3449 H   0  0  0  0  0  0  0  0  0  0  0  0
  144.0958  135.6283  150.2518 H   0  0  0  0  0  0  0  0  0  0  0  0
  145.2920  132.1764  151.4544 H   0  0  0  0  0  0  0  0  0  0  0  0
  146.9787  132.4806  151.0496 H   0  0  0  0  0  0  0  0  0  0  0  0
  145.7823  132.3768  149.7757 H   0  0  0  0  0  0  0  0  0  0  0  0
  1  2  1  0  0  0  0
  1 25  1  0  0  0  0
  1 26  1  0  0  0  0
  1 27  1  0  0  0  0
  2  3  2  0  0  0  0
  2  4  1  0  0  0  0
  4  5  1  0  0  0  0
  4 28  1  0  0  0  0
  5  6  1  0  0  0  0
  5 22  1  0  0  0  0
  5 29  1  0  0  0  0
  6  7  2  0  0  0  0
  6  8  1  0  0  0  0
  8  9  1  0  0  0  0
  8 30  1  0  0  0  0
  9 10  1  0  0  0  0
  9 31  1  0  0  0  0
  9 32  1  0  0  0  0
 10 21  1  0  0  0  0
 10 11  2  0  0  0  0
 11 12  1  0  0  0  0
 11 33  1  0  0  0  0
 12 13  2  0  0  0  0
 12 34  1  0  0  0  0
 13 14  1  0  0  0  0
 13 20  1  0  0  0  0
 14 19  1  0  0  0  0
 14 15  1  0  0  0  0
 15 16  1  0  0  0  0
 15 35  1  0  0  0  0
 15 36  1  0  0  0  0
 16 17  1  0  0  0  0
 16 37  1  0  0  0  0
 16 38  1  0  0  0  0
 17 18  1  0  0  0  0
 18 19  1  0  0  0  0
 18 39  1  0  0  0  0
 18 40  1  0  0  0  0
 19 41  1  0  0  0  0
 19 42  1  0  0  0  0
 20 21  2  0  0  0  0
 21 43  1  0  0  0  0
 22 23  1  0  0  0  0
 22 24  1  0  0  0  0
 22 44  1  0  0  0  0
 23 45  1  0  0  0  0
 23 46  1  0  0  0  0
 23 47  1  0  0  0  0
 24 48  1  0  0  0  0
 24 49  1  0  0  0  0
 24 50  1  0  0  0  0
M  END
> <s_m_source_file>
AV-unprocessed.smi

> <i_m_source_file_index>
366

> <i_lp_mmshare_version>
43012

> <i_f3d_flags>
0

> <s_epik_input>
W0NIM11DKD1PKVtOSF1bQ0BASF0oW0NIXShbQ0gzXSlbQ0gzXSlDKD1PKVtOSF1bQ0gyXWMxW2NIXVtjSF1jKG5bY0hdMSlOMltDSDJdW0NIMl1PW0NIMl1bQ0gyXTI=

> <s_epik_cmdline>
J2VwaWtfcHl0aG9uJywgJy1waCcsICc3LjAnLCAnLXRuJywgJzgnLCAnLW1hJywgJzIwMCcsICctbWV0YWxfYmluZGluZycsICctaW1hZScsICc8aW5maWxlLm1hZT4nLCAnLW9tYWUnLCAnPG91dGZpbGUubWFlPic=

> <r_lp_tautomer_probability>
1

> <r_epik_Ionization_Penalty>
0.00485188

> <r_epik_Ionization_Penalty_Charging>
0

> <r_epik_Ionization_Penalty_Neutral>
0.00485188

> <r_epik_State_Penalty>
0.00351951

> <r_epik_Charging_Adjusted_Penalty>
0.00351951

> <i_epik_Tot_Q>
0

> <i_epik_Tot_abs_Q>
0

> <r_epik_Metal_State_Penalty>
-0

> <b_epik_Metal_Only>
0

> <s_lp_Force_Field>
OPLS_2005

> <r_lp_Energy>
20.5125

> <b_lp_Chiralities_Consistent>
1

> <s_lp_Variant>
AV-unprocessed.smi:366-2

> <Gold.Version>
5.8.1

> <Gold.Id.Protein>
6NUR|6NUR_protein|mol2

> <Gold.PLP.Fitness>
42.9028

> <Gold.PLP.PLP>
-36.3885

> <Gold.PLP.part.hbond>
-1.9662

> <Gold.PLP.part.metal>
0.0000

> <Gold.PLP.part.buried>
-1.7481

> <Gold.PLP.part.nonpolar>
-33.3392

> <Gold.PLP.part.repulsive>
0.4442

> <Gold.PLP.ligand.clash>
0.0000

> <Gold.PLP.ligand.torsion>
1.2217

> <Gold.PLP.Chemscore.Hbond>
1.9913

> <Gold.PLP.Chemscore.CHOScore>
0.8388

> <Gold.PLP.Chemscore.Metal>
0.0000

> <Gold.Chemscore.Hbonds>
donor molecule, donor type, donor heavy atom, donor atom, acceptor molecule, acceptor atom, score
      L1  H     4    28       P1  7948  0.76
      L1  H     8    30       P1  7948  1.00
      P1  H  7989  7998       L1    14  0.01
      L1  C    21    43       P1  7948  0.88

> <Gold.PLP.Chemscore.Internal.Correction>
0.4677

> <Gold.Rescore>
     Score         DG    S(hbond)    S(metal)    S(lipo)     H(rot)  DE(clash)    DE(int)     intcor
     15.70     -16.82       1.98        0.00      88.10       2.18       0.04       1.08       ----

> <Gold.Chemscore.Fitness>
15.6953

> <Gold.Chemscore.DG>
-16.8182

> <Gold.Chemscore.ZeroCoef>
-5.4800

> <Gold.Chemscore.Hbond>
1.9805

> <Gold.Chemscore.Metal>
0.0000

> <Gold.Chemscore.Lipo>
88.0975

> <Gold.Chemscore.Internal_Hbond>
0.0000

> <Gold.Chemscore.DEClash>
0.0435

> <Gold.Chemscore.DEInternal>
1.0794

> <Gold.Chemscore.Rot>
2.1813

> <Gold.Chemscore.Internal.Correction>
   9.000000E+99

> <Gold.Chemscore.Hbonds>
donor molecule, donor type, donor heavy atom, donor atom, acceptor molecule, acceptor atom, score
      L1  H     4    28       P1  7948  0.75
      L1  H     8    30       P1  7948  0.94

> <Gold.Chemscore.Hbond.Weighted>
-6.6150

> <Gold.Chemscore.Metal.Weighted>
-0.0000

> <Gold.Chemscore.Lipo.Weighted>
-10.3074

> <Gold.Chemscore.Internal_Hbond.Weighted>
0.0000

> <Gold.Chemscore.DEClash.Weighted>
0.0435

> <Gold.Chemscore.DEInternal.Weighted>
1.0794

> <Gold.Chemscore.Rot.Weighted>
5.5842

> <Gold.Chemscore.Internal.Correction.Weighted>
   9.000000E+99

> <Gold.Protein.RotatedTorsions>
[ 6907 6896 6895 6894 ] final  -55.97 input  -60.11 | X-H torsion
[ 7974 7965 7964 7962 ] final  -46.90 input  175.53 | X-H torsion
[ 8008 7997 7996 7995 ] final  -12.03 input   59.86 | X-H torsion
[ 10167 10162 10161 10158 ] final   93.20 input  -65.29 | X-H torsion
[ 10718 10713 10712 10709 ] final   51.96 input   66.30 | X-H torsion
[ 10763 10752 10751 10750 ] final  158.28 input  -60.55 | X-H torsion
[ 11005 11000 10999 10996 ] final  -13.57 input  -57.11 | X-H torsion

> <Gold.Protein.ActiveResidues>
 VAL166  LYS551  ARG553  GLY616  TRP617  ASP618  TYR619  PRO620  LYS621  CYS622 
 ASP623  PHE694  ASN695  SER759  ASP760  ASP761  ALA762  ILE779  LEU786  VAL792 
 PHE793  MET794  SER795  GLU796  ALA797  LYS798  CYS799  TRP800  GLU811  SER814 

> <Gold.Protein.RotatedAtoms>
  150.8206  134.7412  159.6768 H   0  0  0  0  0  0  0  0  0  0  0  0  # atno 6907 bound_to 6896
  152.4322  134.5752  159.9942 H   0  0  0  0  0  0  0  0  0  0  0  0  # atno 6908 bound_to 6896
  151.5937  133.3326  159.3069 H   0  0  0  0  0  0  0  0  0  0  0  0  # atno 6909 bound_to 6896
  145.9672  140.7420  142.9428 H   0  0  0  0  0  0  0  0  0  0  0  0  # atno 7974 bound_to 7965
  154.5412  140.2287  155.8637 H   0  0  0  0  0  0  0  0  0  0  0  0  # atno 8008 bound_to 7997
  156.1860  140.3088  155.9202 H   0  0  0  0  0  0  0  0  0  0  0  0  # atno 8009 bound_to 7997
  155.3253  140.0442  157.3031 H   0  0  0  0  0  0  0  0  0  0  0  0  # atno 8010 bound_to 7997
  139.8203  144.6734  150.9528 H   0  0  0  0  0  0  0  0  0  0  0  0  # atno 10167 bound_to 10162
  157.5030  130.8450  149.8339 H   0  0  0  0  0  0  0  0  0  0  0  0  # atno 10718 bound_to 10713
  154.2136  135.2785  155.2950 H   0  0  0  0  0  0  0  0  0  0  0  0  # atno 10763 bound_to 10752
  154.5759  135.5604  153.7142 H   0  0  0  0  0  0  0  0  0  0  0  0  # atno 10764 bound_to 10752
  153.0058  135.6332  154.2275 H   0  0  0  0  0  0  0  0  0  0  0  0  # atno 10765 bound_to 10752
  140.7775  133.8389  155.9262 H   0  0  0  0  0  0  0  0  0  0  0  0  # atno 11005 bound_to 11000
  144.6828  140.2688  143.7309 LP  0  0  0  0  0  0  0  0  0  0  0  0  # atno 17320 bound_to 7965
  145.7957  139.1944  143.2077 LP  0  0  0  0  0  0  0  0  0  0  0  0  # atno 17321 bound_to 7965
  140.7813  143.4098  151.1011 LP  0  0  0  0  0  0  0  0  0  0  0  0  # atno 17342 bound_to 10162
  139.7759  143.8425  152.3129 LP  0  0  0  0  0  0  0  0  0  0  0  0  # atno 17343 bound_to 10162
  156.0241  130.3785  150.1876 LP  0  0  0  0  0  0  0  0  0  0  0  0  # atno 17370 bound_to 10713
  157.0066  130.9938  151.3377 LP  0  0  0  0  0  0  0  0  0  0  0  0  # atno 17371 bound_to 10713
  140.9515  134.1773  157.4724 LP  0  0  0  0  0  0  0  0  0  0  0  0  # atno 17394 bound_to 11000
  139.8747  134.9911  156.5532 LP  0  0  0  0  0  0  0  0  0  0  0  0  # atno 17395 bound_to 11000

$$$$
