AV-unprocessed.smi:36|AV-procd|sdf|290|dock7
  -GOLD-   2262016 73D 1   1.00000     0.00000
 Structure written by MMmdl.
 64 67  0  0  0  0  0  0  0  0  1 V2000
  150.1781  129.4839  166.2289 C   0  0  0  0  0  0  0  0  0  0  0  0
  150.6977  129.7128  164.7999 C   0  0  0  0  0  0  0  0  0  0  0  0
  150.3972  128.4805  163.9305 C   0  0  0  0  0  0  0  0  0  0  0  0
  150.0228  130.9529  164.1903 C   0  0  0  0  0  0  0  0  0  0  0  0
  152.5867  129.9955  164.8477 Si  0  0  0  0  0  0  0  0  0  0  0  0
  153.4813  128.5043  165.6147 C   0  0  0  0  0  0  0  0  0  0  0  0
  153.2764  130.3367  163.1104 C   0  0  0  0  0  0  0  0  0  0  0  0
  152.8841  131.3528  165.8116 O   0  0  0  0  0  0  0  0  0  0  0  0
  154.1644  131.9236  165.9797 C   0  0  0  0  0  0  0  0  0  0  0  0
  154.4861  132.7901  164.7540 C   0  0  1  0  0  0  0  0  0  0  0  0
  154.9486  134.0839  165.1418 O   0  0  0  0  0  0  0  0  0  0  0  0
  155.9354  134.5316  164.2611 C   0  0  2  0  0  0  0  0  0  0  0  0
  155.5437  135.8752  163.7361 N   0  0  0  0  0  0  0  0  0  0  0  0
  155.4059  137.0009  164.4612 C   0  0  0  0  0  0  0  0  0  0  0  0
  155.0498  138.0831  163.7746 N   0  0  0  0  0  0  0  0  0  0  0  0
  154.9435  137.5971  162.4756 C   0  0  0  0  0  0  0  0  0  0  0  0
  154.5804  138.2945  161.2230 C   0  0  0  0  0  0  0  0  0  0  0  0
  154.3268  139.5663  161.2932 N   0  0  0  0  0  0  0  0  0  0  0  0
  153.9793  140.2727  160.1490 C   0  0  0  0  0  0  0  0  0  0  0  0
  153.9805  139.8922  158.9749 O   0  0  0  0  0  0  0  0  0  0  0  0
  153.6064  141.6933  160.4237 C   0  0  0  0  0  0  0  0  0  0  0  0
  153.8635  142.2593  161.6905 C   0  0  0  0  0  0  0  0  0  0  0  0
  153.5069  143.5967  161.9523 C   0  0  0  0  0  0  0  0  0  0  0  0
  152.8903  144.3708  160.9500 C   0  0  0  0  0  0  0  0  0  0  0  0
  152.6287  143.8073  159.6858 C   0  0  0  0  0  0  0  0  0  0  0  0
  152.9853  142.4702  159.4224 C   0  0  0  0  0  0  0  0  0  0  0  0
  154.5906  137.3888  160.1543 N   0  0  0  0  0  0  0  0  0  0  0  0
  154.9094  136.0247  160.2349 C   0  0  0  0  0  0  0  0  0  0  0  0
  155.2419  135.3995  161.3324 N   0  0  0  0  0  0  0  0  0  0  0  0
  155.2368  136.2508  162.4289 C   0  0  0  0  0  0  0  0  0  0  0  0
  156.0454  133.5093  163.1283 C   0  0  0  0  0  0  0  0  0  0  0  0
  155.5709  132.2454  163.8145 C   0  0  1  0  0  0  0  0  0  0  0  0
  156.6303  131.6283  164.5222 O   0  0  0  0  0  0  0  0  0  0  0  0
  149.1009  129.3140  166.2360 H   0  0  0  0  0  0  0  0  0  0  0  0
  150.3785  130.3447  166.8672 H   0  0  0  0  0  0  0  0  0  0  0  0
  150.6500  128.6158  166.6894 H   0  0  0  0  0  0  0  0  0  0  0  0
  150.8599  127.5822  164.3398 H   0  0  0  0  0  0  0  0  0  0  0  0
  150.7739  128.6112  162.9156 H   0  0  0  0  0  0  0  0  0  0  0  0
  149.3247  128.2949  163.8626 H   0  0  0  0  0  0  0  0  0  0  0  0
  148.9415  130.8259  164.1279 H   0  0  0  0  0  0  0  0  0  0  0  0
  150.3906  131.1485  163.1824 H   0  0  0  0  0  0  0  0  0  0  0  0
  150.2140  131.8441  164.7885 H   0  0  0  0  0  0  0  0  0  0  0  0
  153.2835  127.5887  165.0582 H   0  0  0  0  0  0  0  0  0  0  0  0
  153.1662  128.3350  166.6441 H   0  0  0  0  0  0  0  0  0  0  0  0
  154.5614  128.6478  165.6263 H   0  0  0  0  0  0  0  0  0  0  0  0
  153.0860  129.5051  162.4326 H   0  0  0  0  0  0  0  0  0  0  0  0
  154.3543  130.4953  163.1340 H   0  0  0  0  0  0  0  0  0  0  0  0
  152.8281  131.2264  162.6689 H   0  0  0  0  0  0  0  0  0  0  0  0
  154.2038  132.5112  166.8973 H   0  0  0  0  0  0  0  0  0  0  0  0
  154.8914  131.1161  166.0731 H   0  0  0  0  0  0  0  0  0  0  0  0
  153.5768  132.9278  164.1670 H   0  0  0  0  0  0  0  0  0  0  0  0
  156.8725  134.6855  164.7982 H   0  0  0  0  0  0  0  0  0  0  0  0
  155.5764  137.0291  165.5275 H   0  0  0  0  0  0  0  0  0  0  0  0
  154.3354  141.6715  162.4651 H   0  0  0  0  0  0  0  0  0  0  0  0
  153.7054  144.0286  162.9223 H   0  0  0  0  0  0  0  0  0  0  0  0
  152.6165  145.3960  161.1516 H   0  0  0  0  0  0  0  0  0  0  0  0
  152.1533  144.4005  158.9185 H   0  0  0  0  0  0  0  0  0  0  0  0
  152.7794  142.0442  158.4509 H   0  0  0  0  0  0  0  0  0  0  0  0
  154.8598  135.5002  159.2796 H   0  0  0  0  0  0  0  0  0  0  0  0
  155.3628  133.7733  162.3193 H   0  0  0  0  0  0  0  0  0  0  0  0
  157.0600  133.4577  162.7318 H   0  0  0  0  0  0  0  0  0  0  0  0
  155.1658  131.5248  163.1035 H   0  0  0  0  0  0  0  0  0  0  0  0
  156.6883  130.7268  164.2447 H   0  0  0  0  0  0  0  0  0  0  0  0
  154.3519  137.7530  159.2431 H   0  0  0  0  0  0  0  0  0  0  0  0
  1  2  1  0  0  0  0
  1 34  1  0  0  0  0
  1 35  1  0  0  0  0
  1 36  1  0  0  0  0
  2  3  1  0  0  0  0
  2  4  1  0  0  0  0
  2  5  1  0  0  0  0
  3 37  1  0  0  0  0
  3 38  1  0  0  0  0
  3 39  1  0  0  0  0
  4 40  1  0  0  0  0
  4 41  1  0  0  0  0
  4 42  1  0  0  0  0
  5  6  1  0  0  0  0
  5  7  1  0  0  0  0
  5  8  1  0  0  0  0
  6 43  1  0  0  0  0
  6 44  1  0  0  0  0
  6 45  1  0  0  0  0
  7 46  1  0  0  0  0
  7 47  1  0  0  0  0
  7 48  1  0  0  0  0
  8  9  1  0  0  0  0
  9 10  1  0  0  0  0
  9 49  1  0  0  0  0
  9 50  1  0  0  0  0
 10 32  1  0  0  0  0
 10 11  1  0  0  0  0
 10 51  1  0  0  0  0
 11 12  1  0  0  0  0
 12 13  1  0  0  0  0
 12 31  1  0  0  0  0
 12 52  1  0  0  0  0
 13 30  1  0  0  0  0
 13 14  1  0  0  0  0
 14 15  2  0  0  0  0
 14 53  1  0  0  0  0
 15 16  1  0  0  0  0
 16 30  2  0  0  0  0
 16 17  1  0  0  0  0
 17 18  2  0  0  0  0
 17 27  1  0  0  0  0
 18 19  1  0  0  0  0
 19 20  2  0  0  0  0
 19 21  1  0  0  0  0
 21 26  1  0  0  0  0
 21 22  2  0  0  0  0
 22 23  1  0  0  0  0
 22 54  1  0  0  0  0
 23 24  2  0  0  0  0
 23 55  1  0  0  0  0
 24 25  1  0  0  0  0
 24 56  1  0  0  0  0
 25 26  2  0  0  0  0
 25 57  1  0  0  0  0
 26 58  1  0  0  0  0
 27 28  1  0  0  0  0
 27 64  1  0  0  0  0
 28 29  2  0  0  0  0
 28 59  1  0  0  0  0
 29 30  1  0  0  0  0
 31 32  1  0  0  0  0
 31 60  1  0  0  0  0
 31 61  1  0  0  0  0
 32 33  1  0  0  0  0
 32 62  1  0  0  0  0
 33 63  1  0  0  0  0
M  END
> <s_m_source_file>
AV-unprocessed.smi

> <i_m_source_file_index>
36

> <i_lp_mmshare_version>
43012

> <i_f3d_flags>
0

> <s_epik_input>
W0NIM11DKFtDSDNdKShbQ0gzXSlbU2ldKFtDSDNdKShbQ0gzXSlPW0NIMl1bQ0BASF0xT1tDQEhdKFtDSDJdW0NASF0xW09IXSluKFtjSF1uMiljKGMyMyluW2NIXW5jM1tOSF1DKD1PKWM0W2NIXVtjSF1bY0hdW2NIXVtjSF00

> <s_epik_cmdline>
J2VwaWtfcHl0aG9uJywgJy1waCcsICc3LjAnLCAnLXRuJywgJzgnLCAnLW1hJywgJzIwMCcsICctbWV0YWxfYmluZGluZycsICctaW1hZScsICc8aW5maWxlLm1hZT4nLCAnLW9tYWUnLCAnPG91dGZpbGUubWFlPic=

> <r_epik_Ionization_Penalty>
0.0850405

> <r_epik_Ionization_Penalty_Charging>
0.0850403

> <r_epik_Ionization_Penalty_Neutral>
1.47497e-07

> <r_epik_State_Penalty>
2.6133

> <r_epik_Charging_Adjusted_Penalty>
2.69834

> <i_epik_Tot_Q>
0

> <i_epik_Tot_abs_Q>
0

> <r_epik_Metal_State_Penalty>
2.92945

> <b_epik_Metal_Only>
0

> <s_epik_Chemistry_Notes>
This compound contains an acetal/aminal-like group ( X-CH(R)-Y where X, Y are N, S, or O) that may be acid/base labile, releasing an aldehyde.

> <s_lp_Force_Field>
OPLS_2005

> <r_lp_Energy>
50.4083

> <b_lp_Chiralities_Consistent>
1

> <s_lp_Variant>
AV-unprocessed.smi:36-12

> <Gold.Version>
5.8.1

> <Gold.Id.Protein>
6NUR|6NUR_protein|mol2

> <Gold.PLP.Fitness>
54.9920

> <Gold.PLP.PLP>
-54.5057

> <Gold.PLP.part.hbond>
-1.0000

> <Gold.PLP.part.metal>
0.0000

> <Gold.PLP.part.buried>
-4.9052

> <Gold.PLP.part.nonpolar>
-48.0734

> <Gold.PLP.part.repulsive>
0.2250

> <Gold.PLP.ligand.clash>
0.7862

> <Gold.PLP.ligand.torsion>
0.9180

> <Gold.PLP.Chemscore.Hbond>
1.0000

> <Gold.PLP.Chemscore.CHOScore>
0.0000

> <Gold.PLP.Chemscore.Metal>
0.0000

> <Gold.Chemscore.Hbonds>
donor molecule, donor type, donor heavy atom, donor atom, acceptor molecule, acceptor atom, score
      P1  H  7997  8009       L1    20  1.00

> <Gold.PLP.Chemscore.Internal.Correction>
0.1085

> <Gold.Rescore>
     Score         DG    S(hbond)    S(metal)    S(lipo)     H(rot)  DE(clash)    DE(int)     intcor
     12.65     -16.35       0.95        0.00     125.09       2.70       1.10       2.61       ----

> <Gold.Chemscore.Fitness>
12.6462

> <Gold.Chemscore.DG>
-16.3548

> <Gold.Chemscore.ZeroCoef>
-5.4800

> <Gold.Chemscore.Hbond>
0.9468

> <Gold.Chemscore.Metal>
0.0000

> <Gold.Chemscore.Lipo>
125.0859

> <Gold.Chemscore.Internal_Hbond>
0.0000

> <Gold.Chemscore.DEClash>
1.0954

> <Gold.Chemscore.DEInternal>
2.6131

> <Gold.Chemscore.Rot>
2.7041

> <Gold.Chemscore.Internal.Correction>
   9.000000E+99

> <Gold.Chemscore.Hbonds>
donor molecule, donor type, donor heavy atom, donor atom, acceptor molecule, acceptor atom, score
      P1  H  7997  8009       L1    20  0.92

> <Gold.Chemscore.Hbond.Weighted>
-3.1622

> <Gold.Chemscore.Metal.Weighted>
-0.0000

> <Gold.Chemscore.Lipo.Weighted>
-14.6351

> <Gold.Chemscore.Internal_Hbond.Weighted>
0.0000

> <Gold.Chemscore.DEClash.Weighted>
1.0954

> <Gold.Chemscore.DEInternal.Weighted>
2.6131

> <Gold.Chemscore.Rot.Weighted>
6.9225

> <Gold.Chemscore.Internal.Correction.Weighted>
   9.000000E+99

> <Gold.Protein.RotatedTorsions>
[ 6907 6896 6895 6894 ] final    8.22 input  -60.11 | X-H torsion
[ 7974 7965 7964 7962 ] final  105.45 input  175.53 | X-H torsion
[ 8008 7997 7996 7995 ] final  145.75 input   59.86 | X-H torsion
[ 10167 10162 10161 10158 ] final  -70.76 input  -65.29 | X-H torsion
[ 10718 10713 10712 10709 ] final   16.65 input   66.30 | X-H torsion
[ 10763 10752 10751 10750 ] final  175.30 input  -60.55 | X-H torsion
[ 11005 11000 10999 10996 ] final  171.82 input  -57.11 | X-H torsion

> <Gold.Protein.ActiveResidues>
 VAL166  LYS551  ARG553  GLY616  TRP617  ASP618  TYR619  PRO620  LYS621  CYS622 
 ASP623  PHE694  ASN695  SER759  ASP760  ASP761  ALA762  ILE779  LEU786  VAL792 
 PHE793  MET794  SER795  GLU796  ALA797  LYS798  CYS799  TRP800  GLU811  SER814 

> <Gold.Protein.RotatedAtoms>
  151.7025  135.0927  160.0253 H   0  0  0  0  0  0  0  0  0  0  0  0  # atno 6907 bound_to 6896
  152.3712  133.6417  159.6097 H   0  0  0  0  0  0  0  0  0  0  0  0  # atno 6908 bound_to 6896
  150.7674  133.9184  159.3432 H   0  0  0  0  0  0  0  0  0  0  0  0  # atno 6909 bound_to 6896
  145.3195  139.2517  143.3719 H   0  0  0  0  0  0  0  0  0  0  0  0  # atno 7974 bound_to 7965
  156.2874  140.2201  156.5266 H   0  0  0  0  0  0  0  0  0  0  0  0  # atno 8008 bound_to 7997
  154.7484  140.0482  157.0894 H   0  0  0  0  0  0  0  0  0  0  0  0  # atno 8009 bound_to 7997
  155.0141  140.3116  155.4821 H   0  0  0  0  0  0  0  0  0  0  0  0  # atno 8010 bound_to 7997
  140.5327  143.2320  151.7233 H   0  0  0  0  0  0  0  0  0  0  0  0  # atno 10167 bound_to 10162
  157.0709  130.6348  149.5805 H   0  0  0  0  0  0  0  0  0  0  0  0  # atno 10718 bound_to 10713
  154.4658  135.2769  155.1680 H   0  0  0  0  0  0  0  0  0  0  0  0  # atno 10763 bound_to 10752
  154.3449  135.6162  153.5618 H   0  0  0  0  0  0  0  0  0  0  0  0  # atno 10764 bound_to 10752
  152.9859  135.5797  154.5029 H   0  0  0  0  0  0  0  0  0  0  0  0  # atno 10765 bound_to 10752
  140.3231  134.7421  157.4079 H   0  0  0  0  0  0  0  0  0  0  0  0  # atno 11005 bound_to 11000
  146.3087  140.3749  142.8678 LP  0  0  0  0  0  0  0  0  0  0  0  0  # atno 17320 bound_to 7965
  144.8950  140.7572  143.5902 LP  0  0  0  0  0  0  0  0  0  0  0  0  # atno 17321 bound_to 7965
  139.4960  144.4089  152.0101 LP  0  0  0  0  0  0  0  0  0  0  0  0  # atno 17342 bound_to 10162
  140.3193  144.3447  150.6013 LP  0  0  0  0  0  0  0  0  0  0  0  0  # atno 17343 bound_to 10162
  155.9951  130.5016  150.7444 LP  0  0  0  0  0  0  0  0  0  0  0  0  # atno 17370 bound_to 10713
  157.4879  131.0908  151.0461 LP  0  0  0  0  0  0  0  0  0  0  0  0  # atno 17371 bound_to 10713
  140.0925  134.5582  155.8430 LP  0  0  0  0  0  0  0  0  0  0  0  0  # atno 17394 bound_to 11000
  141.2082  133.6671  156.6354 LP  0  0  0  0  0  0  0  0  0  0  0  0  # atno 17395 bound_to 11000

$$$$
