#       Name:                AV-unprocessed.smi:1809
#       Creating user name   scv26
#       Creation time:       Fri Mar 27 08:56:50 2020


#       File generated by GOLD software.
#

@<TRIPOS>MOLECULE
AV-unprocessed.smi:1809
    46    48     1
SMALL
NO_CHARGES


@<TRIPOS>ATOM
      1 ****        -7.0030   3.8616  -0.2476 C.3            1 S1                 0.0000
      2 ****        -5.6645   3.2435  -0.0283 C.2            1 S1                 0.0000
      3 ****        -5.4936   1.9295   0.1625 N.2            1 S1                 0.0000
      4 ****        -4.1593   1.5932   0.3428 N.2            1 S1                 0.0000
      5 ****        -3.3606   2.6678   0.2840 C.2            1 S1                 0.0000
      6 ****        -1.9496   2.6111   0.4335 N.am           1 S1                 0.0000
      7 ****        -1.1777   1.5302   0.6413 C.2            1 S1                 0.0000
      8 ****        -1.5865   0.3746   0.7536 O.2            1 S1                 0.0000
      9 ****         0.1186   1.8648   0.7109 N.am           1 S1                 0.0000
     10 ****         1.2217   0.9293   0.9039 C.3            1 S1                 0.0000
     11 ****         1.8533   0.5111  -0.4419 C.3            1 S1                 0.0000
     12 ****         3.1538  -0.3120  -0.2685 C.3            1 S1                 0.0000
     13 ****         2.8083  -1.6904   0.1254 N.4            1 S1                 1.0000
     14 ****         3.9082  -2.6448   0.3487 C.3            1 S1                 0.0000
     15 ****         3.2794  -4.0343   0.1247 C.3            1 S1                 0.0000
     16 ****         1.8533  -3.7687  -0.3895 C.3            1 S1                 0.0000
     17 ****         1.9165  -2.3164  -0.8520 C.3            1 S1                 0.0000
     18 ****         0.6071  -1.5239  -0.9051 C.3            1 S1                 0.0000
     19 ****         0.9187  -0.1802  -1.2862 O.3            1 S1                 0.0000
     20 ****        -4.1833   4.1925   0.0015 S.3            1 S1                 0.0000
     21 ****        -7.7655   3.0930  -0.3786 H              1 S1                 0.0000
     22 ****        -6.9830   4.4876  -1.1399 H              1 S1                 0.0000
     23 ****        -7.2719   4.4798   0.6089 H              1 S1                 0.0000
     24 ****        -1.4722   3.4977   0.3662 H              1 S1                 0.0000
     25 ****         0.3626   2.8394   0.6108 H              1 S1                 0.0000
     26 ****         1.9703   1.4402   1.5100 H              1 S1                 0.0000
     27 ****         0.9075   0.0639   1.4886 H              1 S1                 0.0000
     28 ****         2.1198   1.4288  -0.9677 H              1 S1                 0.0000
     29 ****         3.7103  -0.3329  -1.2068 H              1 S1                 0.0000
     30 ****         3.8064   0.1400   0.4793 H              1 S1                 0.0000
     31 ****         4.7049  -2.4730  -0.3770 H              1 S1                 0.0000
     32 ****         4.3281  -2.5310   1.3485 H              1 S1                 0.0000
     33 ****         3.8588  -4.5941  -0.6104 H              1 S1                 0.0000
     34 ****         3.2595  -4.6215   1.0433 H              1 S1                 0.0000
     35 ****         1.5551  -4.4525  -1.1849 H              1 S1                 0.0000
     36 ****         1.1392  -3.8718   0.4289 H              1 S1                 0.0000
     37 ****         2.3939  -2.2880  -1.8342 H              1 S1                 0.0000
     38 ****        -0.0697  -1.9540  -1.6434 H              1 S1                 0.0000
     39 ****         0.0921  -1.5526   0.0546 H              1 S1                 0.0000
     40 ****         2.2913  -1.6389   0.9917 H              1 S1                 0.0000
     41 ****        -6.2418   1.2662   0.1738 LP             1 S1                 0.0000
     42 ****        -3.8329   0.6608   0.4980 LP             1 S1                 0.0000
     43 ****        -2.5658   0.1824   0.6911 LP             1 S1                 0.0000
     44 ****        -0.9392  -0.3720   0.9073 LP             1 S1                 0.0000
     45 ****         1.3005  -0.2045  -2.2102 LP             1 S1                 0.0000
     46 ****         0.0661   0.3423  -1.2915 LP             1 S1                 0.0000
@<TRIPOS>BOND
    1    1    2 1     
    2    1   21 1     
    3    1   22 1     
    4    1   23 1     
    5    2   20 1     
    6    2    3 2     
    7    3    4 1     
    8    4    5 2     
    9    5    6 1     
   10    5   20 1     
   11    6    7 am    
   12    6   24 1     
   13    7    8 2     
   14    7    9 am    
   15    9   10 1     
   16    9   25 1     
   17   10   11 1     
   18   10   26 1     
   19   10   27 1     
   20   11   19 1     
   21   11   12 1     
   22   11   28 1     
   23   12   13 1     
   24   12   29 1     
   25   12   30 1     
   26   13   17 1     
   27   13   14 1     
   28   13   40 1     
   29   14   15 1     
   30   14   31 1     
   31   14   32 1     
   32   15   16 1     
   33   15   33 1     
   34   15   34 1     
   35   16   17 1     
   36   16   35 1     
   37   16   36 1     
   38   17   18 1     
   39   17   37 1     
   40   18   19 1     
   41   18   38 1     
   42   18   39 1     
   43    3   41 1     
   44    4   42 1     
   45    8   43 1     
   46    8   44 1     
   47   19   45 1     
   48   19   46 1     
@<TRIPOS>SUBSTRUCTURE
      1 S1             1
@<TRIPOS>SET
LONE_PAIRS      STATIC     ATOMS    <user>   **** ""
6 41 42 43 44 45 46
DONOR_HYDROGENS      STATIC     ATOMS    <user>   **** ""
3 24 25 40
ATOM$BLUE        STATIC     ATOMS    COLORGROUP SYSTEM
6 41 42 43 44 45 46
ATOM$RED        STATIC     ATOMS    COLORGROUP SYSTEM
3 24 25 40
