AV-unprocessed.smi:2198|AV-procd|sdf|8921|dock10
  -GOLD-   2272012133D 1   1.00000     0.00000
 Structure written by MMmdl.
 42 43  0  0  0  0  0  0  0  0  2 V2000
  149.8733  134.0599  155.0297 C   0  0  0  0  0  0  0  0  0  0  0  0
  149.9688  135.5707  155.0401 C   0  0  0  0  0  0  0  0  0  0  0  0
  148.9404  136.2603  155.3583 N   0  0  0  0  0  0  0  0  0  0  0  0
  149.0265  137.6627  155.3755 C   0  0  0  0  0  0  0  0  0  0  0  0
  147.7576  138.3982  155.7703 C   0  0  0  0  0  0  0  0  0  0  0  0
  150.1878  138.3032  155.0556 C   0  0  0  0  0  0  0  0  0  0  0  0
  150.3350  139.8241  155.0677 C   0  0  0  0  0  0  0  0  0  0  0  0
  151.4288  140.3692  155.9874 C   0  0  0  0  0  0  0  0  0  0  0  0
  152.6050  140.0596  155.7988 O   0  0  0  0  0  0  0  0  0  0  0  0
  151.0281  141.1818  156.9775 N   0  0  0  0  0  0  0  0  0  0  0  0
  151.9037  141.8187  157.9556 C   0  0  2  0  0  0  0  0  0  0  0  0
  151.8644  141.0589  159.2968 C   0  0  0  0  0  0  0  0  0  0  0  0
  152.7220  141.7605  160.3604 C   0  0  0  0  0  0  0  0  0  0  0  0
  152.2950  143.2252  160.5436 C   0  0  0  0  0  0  0  0  0  0  0  0
  152.3390  143.9978  159.2112 C   0  0  2  0  0  0  0  0  0  0  0  0
  151.9083  145.4596  159.3971 C   0  0  0  0  0  0  0  0  0  0  0  0
  151.4800  143.2875  158.1465 C   0  0  0  0  0  0  0  0  0  0  0  0
  151.3478  137.4714  154.6874 C   0  0  0  0  0  0  0  0  0  0  0  0
  152.4164  137.9967  154.3774 O   0  0  0  0  0  0  0  0  0  0  0  0
  151.1860  136.1175  154.7021 N   0  5  0  0  0  0  0  0  0  0  0  0
  148.8381  133.7306  155.1297 H   0  0  0  0  0  0  0  0  0  0  0  0
  150.4481  133.6413  155.8563 H   0  0  0  0  0  0  0  0  0  0  0  0
  150.2680  133.6596  154.0953 H   0  0  0  0  0  0  0  0  0  0  0  0
  147.9296  139.0217  156.6477 H   0  0  0  0  0  0  0  0  0  0  0  0
  146.9554  137.6996  156.0112 H   0  0  0  0  0  0  0  0  0  0  0  0
  147.4135  139.0319  154.9532 H   0  0  0  0  0  0  0  0  0  0  0  0
  150.5224  140.1603  154.0476 H   0  0  0  0  0  0  0  0  0  0  0  0
  149.3938  140.3024  155.3395 H   0  0  0  0  0  0  0  0  0  0  0  0
  150.0412  141.3810  157.0523 H   0  0  0  0  0  0  0  0  0  0  0  0
  152.9266  141.8094  157.5738 H   0  0  0  0  0  0  0  0  0  0  0  0
  150.8352  140.9873  159.6515 H   0  0  0  0  0  0  0  0  0  0  0  0
  152.2167  140.0356  159.1621 H   0  0  0  0  0  0  0  0  0  0  0  0
  152.6444  141.2294  161.3096 H   0  0  0  0  0  0  0  0  0  0  0  0
  153.7722  141.7190  160.0684 H   0  0  0  0  0  0  0  0  0  0  0  0
  151.2863  143.2597  160.9577 H   0  0  0  0  0  0  0  0  0  0  0  0
  152.9453  143.7053  161.2756 H   0  0  0  0  0  0  0  0  0  0  0  0
  153.3719  144.0027  158.8597 H   0  0  0  0  0  0  0  0  0  0  0  0
  150.8793  145.5278  159.7520 H   0  0  0  0  0  0  0  0  0  0  0  0
  151.9745  146.0116  158.4592 H   0  0  0  0  0  0  0  0  0  0  0  0
  152.5450  145.9668  160.1226 H   0  0  0  0  0  0  0  0  0  0  0  0
  151.5586  143.8176  157.1962 H   0  0  0  0  0  0  0  0  0  0  0  0
  150.4291  143.3319  158.4373 H   0  0  0  0  0  0  0  0  0  0  0  0
  1  2  1  0  0  0  0
  1 21  1  0  0  0  0
  1 22  1  0  0  0  0
  1 23  1  0  0  0  0
  2 20  1  0  0  0  0
  2  3  2  0  0  0  0
  3  4  1  0  0  0  0
  4  5  1  0  0  0  0
  4  6  2  0  0  0  0
  5 24  1  0  0  0  0
  5 25  1  0  0  0  0
  5 26  1  0  0  0  0
  6  7  1  0  0  0  0
  6 18  1  0  0  0  0
  7  8  1  0  0  0  0
  7 27  1  0  0  0  0
  7 28  1  0  0  0  0
  8  9  2  0  0  0  0
  8 10  1  0  0  0  0
 10 11  1  0  0  0  0
 10 29  1  0  0  0  0
 11 17  1  0  0  0  0
 11 12  1  0  0  0  0
 11 30  1  0  0  0  0
 12 13  1  0  0  0  0
 12 31  1  0  0  0  0
 12 32  1  0  0  0  0
 13 14  1  0  0  0  0
 13 33  1  0  0  0  0
 13 34  1  0  0  0  0
 14 15  1  0  0  0  0
 14 35  1  0  0  0  0
 14 36  1  0  0  0  0
 15 16  1  0  0  0  0
 15 17  1  0  0  0  0
 15 37  1  0  0  0  0
 16 38  1  0  0  0  0
 16 39  1  0  0  0  0
 16 40  1  0  0  0  0
 17 41  1  0  0  0  0
 17 42  1  0  0  0  0
 18 19  2  0  0  0  0
 18 20  1  0  0  0  0
M  CHG  1  20  -1
M  END
> <s_m_source_file>
AV-unprocessed.smi

> <i_m_source_file_index>
2198

> <i_lp_mmshare_version>
43012

> <i_f3d_flags>
0

> <s_epik_input>
W0NIM11jMW5jKFtDSDNdKWMoYyg9TylbbkhdMSlbQ0gyXUMoPU8pW05IXVtDQEBIXTJbQ0gyXVtDSDJdW0NIMl1bQ0BASF0oW0NIM10pW0NIMl0y

> <s_epik_cmdline>
J2VwaWtfcHl0aG9uJywgJy1waCcsICc3LjAnLCAnLXRuJywgJzgnLCAnLW1hJywgJzIwMCcsICctbWV0YWxfYmluZGluZycsICctaW1hZScsICc8aW5maWxlLm1hZT4nLCAnLW9tYWUnLCAnPG91dGZpbGUubWFlPic=

> <r_lp_tautomer_probability>
0.839158

> <r_epik_Ionization_Penalty>
6.67193

> <r_epik_Ionization_Penalty_Charging>
7.66837e-08

> <r_epik_Ionization_Penalty_Neutral>
6.67193

> <r_epik_State_Penalty>
4.51643

> <r_epik_Charging_Adjusted_Penalty>
4.51643

> <i_epik_Tot_Q>
-1

> <i_epik_Tot_abs_Q>
1

> <r_epik_Metal_State_Penalty>
0.851582

> <b_epik_Metal_Only>
1

> <s_lp_Force_Field>
OPLS_2005

> <r_lp_Energy>
13.6631

> <b_lp_Chiralities_Consistent>
1

> <s_lp_Variant>
AV-unprocessed.smi:2198-11

> <Gold.Version>
5.8.1

> <Gold.Id.Protein>
6NUR|6NUR_protein|mol2

> <Gold.PLP.Fitness>
48.0615

> <Gold.PLP.PLP>
-39.5469

> <Gold.PLP.part.hbond>
-2.7574

> <Gold.PLP.part.metal>
0.0000

> <Gold.PLP.part.buried>
-3.5370

> <Gold.PLP.part.nonpolar>
-33.9079

> <Gold.PLP.part.repulsive>
0.4546

> <Gold.PLP.ligand.clash>
0.0000

> <Gold.PLP.ligand.torsion>
0.2445

> <Gold.PLP.Chemscore.Hbond>
3.0000

> <Gold.PLP.Chemscore.CHOScore>
0.0000

> <Gold.PLP.Chemscore.Metal>
0.0000

> <Gold.Chemscore.Hbonds>
donor molecule, donor type, donor heavy atom, donor atom, acceptor molecule, acceptor atom, score
      P1  H  7997  8010       L1     9  1.00
      P1  H 10752 10763       L1    20  1.90

> <Gold.PLP.Chemscore.Internal.Correction>
0.0036

> <Gold.Rescore>
     Score         DG    S(hbond)    S(metal)    S(lipo)     H(rot)  DE(clash)    DE(int)     intcor
     15.40     -18.48       1.72        0.00      93.63       1.45       1.23       1.85       ----

> <Gold.Chemscore.Fitness>
15.4008

> <Gold.Chemscore.DG>
-18.4817

> <Gold.Chemscore.ZeroCoef>
-5.4800

> <Gold.Chemscore.Hbond>
1.7205

> <Gold.Chemscore.Metal>
0.0000

> <Gold.Chemscore.Lipo>
93.6271

> <Gold.Chemscore.Internal_Hbond>
0.0000

> <Gold.Chemscore.DEClash>
1.2321

> <Gold.Chemscore.DEInternal>
1.8488

> <Gold.Chemscore.Rot>
1.4450

> <Gold.Chemscore.Internal.Correction>
   9.000000E+99

> <Gold.Chemscore.Hbonds>
donor molecule, donor type, donor heavy atom, donor atom, acceptor molecule, acceptor atom, score
      P1  H  7997  8010       L1     9  1.00
      P1  H 10752 10763       L1    20  0.22

> <Gold.Chemscore.Hbond.Weighted>
-5.7465

> <Gold.Chemscore.Metal.Weighted>
-0.0000

> <Gold.Chemscore.Lipo.Weighted>
-10.9544

> <Gold.Chemscore.Internal_Hbond.Weighted>
0.0000

> <Gold.Chemscore.DEClash.Weighted>
1.2321

> <Gold.Chemscore.DEInternal.Weighted>
1.8488

> <Gold.Chemscore.Rot.Weighted>
3.6992

> <Gold.Chemscore.Internal.Correction.Weighted>
   9.000000E+99

> <Gold.Protein.RotatedTorsions>
[ 6907 6896 6895 6894 ] final   37.13 input  -60.11 | X-H torsion
[ 7974 7965 7964 7962 ] final  -87.00 input  175.53 | X-H torsion
[ 8008 7997 7996 7995 ] final   88.32 input   59.86 | X-H torsion
[ 10167 10162 10161 10158 ] final  -21.76 input  -65.29 | X-H torsion
[ 10718 10713 10712 10709 ] final  120.98 input   66.30 | X-H torsion
[ 10763 10752 10751 10750 ] final   45.38 input  -60.55 | X-H torsion
[ 11005 11000 10999 10996 ] final   57.49 input  -57.11 | X-H torsion

> <Gold.Protein.ActiveResidues>
 VAL166  LYS551  ARG553  GLY616  TRP617  ASP618  TYR619  PRO620  LYS621  CYS622 
 ASP623  PHE694  ASN695  SER759  ASP760  ASP761  ALA762  ILE779  LEU786  VAL792 
 PHE793  MET794  SER795  GLU796  ALA797  LYS798  CYS799  TRP800  GLU811  SER814 

> <Gold.Protein.RotatedAtoms>
  152.1391  134.9076  160.0554 H   0  0  0  0  0  0  0  0  0  0  0  0  # atno 6907 bound_to 6896
  152.0151  133.3872  159.4244 H   0  0  0  0  0  0  0  0  0  0  0  0  # atno 6908 bound_to 6896
  150.6863  134.3609  159.4993 H   0  0  0  0  0  0  0  0  0  0  0  0  # atno 6909 bound_to 6896
  145.4724  140.9559  143.1910 H   0  0  0  0  0  0  0  0  0  0  0  0  # atno 7974 bound_to 7965
  155.9863  140.3373  155.6710 H   0  0  0  0  0  0  0  0  0  0  0  0  # atno 8008 bound_to 7997
  155.6481  140.0702  157.2614 H   0  0  0  0  0  0  0  0  0  0  0  0  # atno 8009 bound_to 7997
  154.4206  140.1730  156.1633 H   0  0  0  0  0  0  0  0  0  0  0  0  # atno 8010 bound_to 7997
  140.7283  143.4597  151.0397 H   0  0  0  0  0  0  0  0  0  0  0  0  # atno 10167 bound_to 10162
  157.5851  131.1070  150.8110 H   0  0  0  0  0  0  0  0  0  0  0  0  # atno 10718 bound_to 10713
  152.9825  135.6041  154.3427 H   0  0  0  0  0  0  0  0  0  0  0  0  # atno 10763 bound_to 10752
  154.3123  135.2771  155.2562 H   0  0  0  0  0  0  0  0  0  0  0  0  # atno 10764 bound_to 10752
  154.4766  135.5928  153.6415 H   0  0  0  0  0  0  0  0  0  0  0  0  # atno 10765 bound_to 10752
  140.0449  134.5821  155.9335 H   0  0  0  0  0  0  0  0  0  0  0  0  # atno 11005 bound_to 11000
  144.7937  139.6276  143.7102 LP  0  0  0  0  0  0  0  0  0  0  0  0  # atno 17320 bound_to 7965
  146.2389  139.5961  142.9505 LP  0  0  0  0  0  0  0  0  0  0  0  0  # atno 17321 bound_to 7965
  139.8281  143.7728  152.3179 LP  0  0  0  0  0  0  0  0  0  0  0  0  # atno 17342 bound_to 10162
  139.7834  144.7436  151.0056 LP  0  0  0  0  0  0  0  0  0  0  0  0  # atno 17343 bound_to 10162
  156.8546  130.5092  149.5309 LP  0  0  0  0  0  0  0  0  0  0  0  0  # atno 17370 bound_to 10713
  156.0900  130.5888  150.9716 LP  0  0  0  0  0  0  0  0  0  0  0  0  # atno 17371 bound_to 10713
  141.1902  133.6567  156.5400 LP  0  0  0  0  0  0  0  0  0  0  0  0  # atno 17394 bound_to 11000
  140.4010  134.7356  157.4780 LP  0  0  0  0  0  0  0  0  0  0  0  0  # atno 17395 bound_to 11000

$$$$
