#       Name:                AV-unprocessed.smi:2399
#       Creating user name   scv26
#       Creation time:       Fri Mar 27 13:12:59 2020


#       File generated by GOLD software.
#

@<TRIPOS>MOLECULE
AV-unprocessed.smi:2399
    58    60     1
SMALL
NO_CHARGES


@<TRIPOS>ATOM
      1 ****        -4.6371  -4.8499   0.5651 C.3            1 S1                 0.0000
      2 ****        -4.0572  -3.5679   0.3735 O.3            1 S1                 0.0000
      3 ****        -4.8551  -2.4555   0.5575 C.ar           1 S1                 0.0000
      4 ****        -6.2301  -2.5236   0.8988 C.ar           1 S1                 0.0000
      5 ****        -6.9603  -1.3342   1.0661 C.ar           1 S1                 0.0000
      6 ****        -6.2893  -0.1118   0.8861 C.ar           1 S1                 0.0000
      7 ****        -7.0124   1.2079   1.0536 C.3            1 S1                 0.0000
      8 ****        -4.9828  -0.0344   0.5633 N.ar           1 S1                 0.0000
      9 ****        -4.2668  -1.1742   0.3984 C.ar           1 S1                 0.0000
     10 ****        -2.8872  -1.1742   0.0536 N.am           1 S1                 0.0000
     11 ****        -2.0632  -0.1225  -0.0937 C.2            1 S1                 0.0000
     12 ****        -2.3761   1.0584   0.0623 O.2            1 S1                 0.0000
     13 ****        -0.8265  -0.5186  -0.4288 N.am           1 S1                 0.0000
     14 ****         0.3085   0.3737  -0.6446 C.3            1 S1                 0.0000
     15 ****         1.3542  -0.3121  -1.5345 C.3            1 S1                 0.0000
     16 ****         2.6000   0.5719  -1.7133 C.3            1 S1                 0.0000
     17 ****         3.2052   0.9388  -0.4023 N.4            1 S1                 1.0000
     18 ****         4.4797   1.7028  -0.5372 C.3            1 S1                 0.0000
     19 ****         5.5562   0.9833  -1.3621 C.3            1 S1                 0.0000
     20 ****         6.8660   1.6764  -0.9824 C.3            1 S1                 0.0000
     21 ****         6.6709   2.1888   0.4501 C.3            1 S1                 0.0000
     22 ****         5.1989   1.9380   0.8009 C.3            1 S1                 0.0000
     23 ****         2.2117   1.6273   0.4682 C.3            1 S1                 0.0000
     24 ****         0.9601   0.7641   0.6920 C.3            1 S1                 0.0000
     25 ****        -3.8798  -5.6154   0.3967 H              1 S1                 0.0000
     26 ****        -5.4498  -5.0300  -0.1398 H              1 S1                 0.0000
     27 ****        -5.0076  -4.9718   1.5838 H              1 S1                 0.0000
     28 ****        -6.7408  -3.4646   1.0357 H              1 S1                 0.0000
     29 ****        -8.0080  -1.3638   1.3265 H              1 S1                 0.0000
     30 ****        -8.0925   1.0635   1.0934 H              1 S1                 0.0000
     31 ****        -6.7905   1.8751   0.2200 H              1 S1                 0.0000
     32 ****        -6.6979   1.6952   1.9767 H              1 S1                 0.0000
     33 ****        -2.4823  -2.0876  -0.0894 H              1 S1                 0.0000
     34 ****        -0.6582  -1.5082  -0.5377 H              1 S1                 0.0000
     35 ****        -0.0365   1.2765  -1.1531 H              1 S1                 0.0000
     36 ****         1.6481  -1.2673  -1.0964 H              1 S1                 0.0000
     37 ****         0.9223  -0.5393  -2.5101 H              1 S1                 0.0000
     38 ****         3.3137   0.0233  -2.3266 H              1 S1                 0.0000
     39 ****         2.3422   1.4791  -2.2624 H              1 S1                 0.0000
     40 ****         4.2698   2.6682  -1.0018 H              1 S1                 0.0000
     41 ****         5.6060  -0.0690  -1.0782 H              1 S1                 0.0000
     42 ****         5.3754   1.0326  -2.4364 H              1 S1                 0.0000
     43 ****         7.7221   1.0067  -1.0703 H              1 S1                 0.0000
     44 ****         7.0419   2.5206  -1.6502 H              1 S1                 0.0000
     45 ****         7.3294   1.6754   1.1518 H              1 S1                 0.0000
     46 ****         6.9061   3.2525   0.5029 H              1 S1                 0.0000
     47 ****         4.7742   2.7680   1.3665 H              1 S1                 0.0000
     48 ****         5.1277   1.0445   1.4234 H              1 S1                 0.0000
     49 ****         2.6448   1.8522   1.4420 H              1 S1                 0.0000
     50 ****         1.9330   2.5818   0.0188 H              1 S1                 0.0000
     51 ****         0.2486   1.3093   1.3134 H              1 S1                 0.0000
     52 ****         1.2326  -0.1333   1.2497 H              1 S1                 0.0000
     53 ****         3.4401   0.0710   0.0580 H              1 S1                 0.0000
     54 ****        -3.7148  -3.5349  -0.5654 LP             1 S1                 0.0000
     55 ****        -3.2904  -3.4912   1.0109 LP             1 S1                 0.0000
     56 ****        -4.5448   0.8570   0.4463 LP             1 S1                 0.0000
     57 ****        -3.3121   1.2978   0.3205 LP             1 S1                 0.0000
     58 ****        -1.6942   1.7780  -0.0691 LP             1 S1                 0.0000
@<TRIPOS>BOND
    1    1    2 1     
    2    1   25 1     
    3    1   26 1     
    4    1   27 1     
    5    2    3 1     
    6    3    9 ar    
    7    3    4 ar    
    8    4    5 ar    
    9    4   28 1     
   10    5    6 ar    
   11    5   29 1     
   12    6    7 1     
   13    6    8 ar    
   14    7   30 1     
   15    7   31 1     
   16    7   32 1     
   17    8    9 ar    
   18    9   10 1     
   19   10   11 am    
   20   10   33 1     
   21   11   12 2     
   22   11   13 am    
   23   13   14 1     
   24   13   34 1     
   25   14   24 1     
   26   14   15 1     
   27   14   35 1     
   28   15   16 1     
   29   15   36 1     
   30   15   37 1     
   31   16   17 1     
   32   16   38 1     
   33   16   39 1     
   34   17   18 1     
   35   17   23 1     
   36   17   53 1     
   37   18   22 1     
   38   18   19 1     
   39   18   40 1     
   40   19   20 1     
   41   19   41 1     
   42   19   42 1     
   43   20   21 1     
   44   20   43 1     
   45   20   44 1     
   46   21   22 1     
   47   21   45 1     
   48   21   46 1     
   49   22   47 1     
   50   22   48 1     
   51   23   24 1     
   52   23   49 1     
   53   23   50 1     
   54   24   51 1     
   55   24   52 1     
   56    2   54 1     
   57    2   55 1     
   58    8   56 1     
   59   12   57 1     
   60   12   58 1     
@<TRIPOS>SUBSTRUCTURE
      1 S1             1
@<TRIPOS>SET
LONE_PAIRS      STATIC     ATOMS    <user>   **** ""
5 54 55 56 57 58
DONOR_HYDROGENS      STATIC     ATOMS    <user>   **** ""
3 33 34 53
ATOM$BLUE        STATIC     ATOMS    COLORGROUP SYSTEM
5 54 55 56 57 58
ATOM$RED        STATIC     ATOMS    COLORGROUP SYSTEM
3 33 34 53
