AV-unprocessed.smi:2270|AV-procd|sdf|9159|dock9
  -GOLD-   2272012373D 1   1.00000     0.00000
 Structure written by MMmdl.
 52 53  0  0  0  0  0  0  0  0  1 V2000
  153.7602  141.2195  160.5149 C   0  0  0  0  0  0  0  0  0  0  0  0
  152.8693  142.3639  160.0801 C   0  0  0  0  0  0  0  0  0  0  0  0
  152.7656  143.5360  160.8546 C   0  0  0  0  0  0  0  0  0  0  0  0
  151.9261  144.5646  160.3910 C   0  0  0  0  0  0  0  0  0  0  0  0
  151.2314  144.3812  159.1799 C   0  0  0  0  0  0  0  0  0  0  0  0
  151.3900  143.1732  158.4637 C   0  0  0  0  0  0  0  0  0  0  0  0
  150.6546  143.0891  157.2520 N   0  0  0  0  0  0  0  0  0  0  0  0
  150.3107  141.9855  156.5647 C   0  0  0  0  0  0  0  0  0  0  0  0
  150.5267  140.8279  156.9241 O   0  0  0  0  0  0  0  0  0  0  0  0
  149.6908  142.3042  155.4189 N   0  0  0  0  0  0  0  0  0  0  0  0
  149.1974  141.3592  154.4205 C   0  0  0  0  0  0  0  0  0  0  0  0
  147.9307  140.5980  154.9024 C   0  0  1  0  0  0  0  0  0  0  0  0
  146.7586  141.5278  155.3452 C   0  0  0  0  0  0  0  0  0  0  0  0
  146.3880  142.5402  154.2481 C   0  0  0  0  0  0  0  0  0  0  0  0
  146.9180  142.2325  156.7050 C   0  0  0  0  0  0  0  0  0  0  0  0
  147.5209  139.4748  154.0376 N   0  0  0  0  0  0  0  0  0  0  0  0
  146.5215  138.5671  154.6152 C   0  0  0  0  0  0  0  0  0  0  0  0
  146.2584  137.3653  153.6889 C   0  0  0  0  0  0  0  0  0  0  0  0
  145.7938  137.7973  152.3719 N   0  0  0  0  0  0  0  0  0  0  0  0
  145.5403  136.6636  151.4962 C   0  0  0  0  0  0  0  0  0  0  0  0
  146.7789  138.7106  151.7962 C   0  0  0  0  0  0  0  0  0  0  0  0
  147.0418  139.9118  152.7232 C   0  0  0  0  0  0  0  0  0  0  0  0
  152.2023  142.1871  158.9195 N   0  0  0  0  0  0  0  0  0  0  0  0
  154.0761  141.3374  161.5517 H   0  0  0  0  0  0  0  0  0  0  0  0
  154.6512  141.1784  159.8880 H   0  0  0  0  0  0  0  0  0  0  0  0
  153.2333  140.2688  160.4269 H   0  0  0  0  0  0  0  0  0  0  0  0
  153.3142  143.6464  161.7786 H   0  0  0  0  0  0  0  0  0  0  0  0
  151.8171  145.4801  160.9535 H   0  0  0  0  0  0  0  0  0  0  0  0
  150.5841  145.1624  158.8084 H   0  0  0  0  0  0  0  0  0  0  0  0
  150.3778  143.9727  156.8506 H   0  0  0  0  0  0  0  0  0  0  0  0
  149.5574  143.2833  155.2127 H   0  0  0  0  0  0  0  0  0  0  0  0
  149.0196  141.8566  153.4666 H   0  0  0  0  0  0  0  0  0  0  0  0
  150.0115  140.6589  154.2376 H   0  0  0  0  0  0  0  0  0  0  0  0
  148.2403  140.1403  155.8434 H   0  0  0  0  0  0  0  0  0  0  0  0
  145.8818  140.8888  155.4482 H   0  0  0  0  0  0  0  0  0  0  0  0
  147.1852  143.2668  154.0888 H   0  0  0  0  0  0  0  0  0  0  0  0
  145.4867  143.0932  154.5137 H   0  0  0  0  0  0  0  0  0  0  0  0
  146.1978  142.0409  153.2977 H   0  0  0  0  0  0  0  0  0  0  0  0
  147.5854  143.0907  156.6420 H   0  0  0  0  0  0  0  0  0  0  0  0
  147.2916  141.5637  157.4786 H   0  0  0  0  0  0  0  0  0  0  0  0
  145.9559  142.6129  157.0490 H   0  0  0  0  0  0  0  0  0  0  0  0
  146.8410  138.1945  155.5831 H   0  0  0  0  0  0  0  0  0  0  0  0
  145.5829  139.0964  154.7836 H   0  0  0  0  0  0  0  0  0  0  0  0
  147.1705  136.7744  153.5895 H   0  0  0  0  0  0  0  0  0  0  0  0
  145.5130  136.7138  154.1463 H   0  0  0  0  0  0  0  0  0  0  0  0
  145.1772  137.0000  150.5246 H   0  0  0  0  0  0  0  0  0  0  0  0
  144.7823  136.0071  151.9245 H   0  0  0  0  0  0  0  0  0  0  0  0
  146.4466  136.0780  151.3363 H   0  0  0  0  0  0  0  0  0  0  0  0
  147.7153  138.1823  151.6101 H   0  0  0  0  0  0  0  0  0  0  0  0
  146.4264  139.0707  150.8293 H   0  0  0  0  0  0  0  0  0  0  0  0
  146.1283  140.4983  152.8239 H   0  0  0  0  0  0  0  0  0  0  0  0
  147.7814  140.5623  152.2555 H   0  0  0  0  0  0  0  0  0  0  0  0
  1  2  1  0  0  0  0
  1 24  1  0  0  0  0
  1 25  1  0  0  0  0
  1 26  1  0  0  0  0
  2 23  1  0  0  0  0
  2  3  2  0  0  0  0
  3  4  1  0  0  0  0
  3 27  1  0  0  0  0
  4  5  2  0  0  0  0
  4 28  1  0  0  0  0
  5  6  1  0  0  0  0
  5 29  1  0  0  0  0
  6  7  1  0  0  0  0
  6 23  2  0  0  0  0
  7  8  1  0  0  0  0
  7 30  1  0  0  0  0
  8  9  2  0  0  0  0
  8 10  1  0  0  0  0
 10 11  1  0  0  0  0
 10 31  1  0  0  0  0
 11 12  1  0  0  0  0
 11 32  1  0  0  0  0
 11 33  1  0  0  0  0
 12 13  1  0  0  0  0
 12 16  1  0  0  0  0
 12 34  1  0  0  0  0
 13 14  1  0  0  0  0
 13 15  1  0  0  0  0
 13 35  1  0  0  0  0
 14 36  1  0  0  0  0
 14 37  1  0  0  0  0
 14 38  1  0  0  0  0
 15 39  1  0  0  0  0
 15 40  1  0  0  0  0
 15 41  1  0  0  0  0
 16 22  1  0  0  0  0
 16 17  1  0  0  0  0
 17 18  1  0  0  0  0
 17 42  1  0  0  0  0
 17 43  1  0  0  0  0
 18 19  1  0  0  0  0
 18 44  1  0  0  0  0
 18 45  1  0  0  0  0
 19 20  1  0  0  0  0
 19 21  1  0  0  0  0
 20 46  1  0  0  0  0
 20 47  1  0  0  0  0
 20 48  1  0  0  0  0
 21 22  1  0  0  0  0
 21 49  1  0  0  0  0
 21 50  1  0  0  0  0
 22 51  1  0  0  0  0
 22 52  1  0  0  0  0
M  END
> <s_m_source_file>
AV-unprocessed.smi

> <i_m_source_file_index>
2270

> <i_lp_mmshare_version>
43012

> <i_f3d_flags>
0

> <s_epik_input>
W0NIM11jMVtjSF1bY0hdW2NIXWMobjEpW05IXUMoPU8pW05IXVtDSDJdW0NASF0oW0NIXShbQ0gzXSlbQ0gzXSlOMltDSDJdW0NIMl1OKFtDSDNdKVtDSDJdW0NIMl0y

> <s_epik_cmdline>
J2VwaWtfcHl0aG9uJywgJy1waCcsICc3LjAnLCAnLXRuJywgJzgnLCAnLW1hJywgJzIwMCcsICctbWV0YWxfYmluZGluZycsICctaW1hZScsICc8aW5maWxlLm1hZT4nLCAnLW9tYWUnLCAnPG91dGZpbGUubWFlPic=

> <r_epik_Ionization_Penalty>
2.57754

> <r_epik_Ionization_Penalty_Charging>
0

> <r_epik_Ionization_Penalty_Neutral>
2.57754

> <r_epik_State_Penalty>
2.00874

> <r_epik_Charging_Adjusted_Penalty>
2.00874

> <i_epik_Tot_Q>
0

> <i_epik_Tot_abs_Q>
0

> <r_epik_Metal_State_Penalty>
2.00874

> <b_epik_Metal_Only>
0

> <s_lp_Force_Field>
OPLS_2005

> <r_lp_Energy>
49.2336

> <b_lp_Chiralities_Consistent>
1

> <s_lp_Variant>
AV-unprocessed.smi:2270-6

> <Gold.Version>
5.8.1

> <Gold.Id.Protein>
6NUR|6NUR_protein|mol2

> <Gold.PLP.Fitness>
49.3294

> <Gold.PLP.PLP>
-44.8290

> <Gold.PLP.part.hbond>
-2.0000

> <Gold.PLP.part.metal>
0.0000

> <Gold.PLP.part.buried>
-1.6984

> <Gold.PLP.part.nonpolar>
-40.3859

> <Gold.PLP.part.repulsive>
0.6578

> <Gold.PLP.ligand.clash>
0.0000

> <Gold.PLP.ligand.torsion>
0.5999

> <Gold.PLP.Chemscore.Hbond>
1.7600

> <Gold.PLP.Chemscore.CHOScore>
0.0000

> <Gold.PLP.Chemscore.Metal>
0.0000

> <Gold.Chemscore.Hbonds>
donor molecule, donor type, donor heavy atom, donor atom, acceptor molecule, acceptor atom, score
      L1  H     7    30       P1  8028  0.79
      L1  H    10    31       P1  8028  0.98

> <Gold.PLP.Chemscore.Internal.Correction>
0.4202

> <Gold.Rescore>
     Score         DG    S(hbond)    S(metal)    S(lipo)     H(rot)  DE(clash)    DE(int)     intcor
     18.62     -20.63       1.86        0.00     110.47       1.56       0.06       1.95       ----

> <Gold.Chemscore.Fitness>
18.6238

> <Gold.Chemscore.DG>
-20.6313

> <Gold.Chemscore.ZeroCoef>
-5.4800

> <Gold.Chemscore.Hbond>
1.8630

> <Gold.Chemscore.Metal>
0.0000

> <Gold.Chemscore.Lipo>
110.4748

> <Gold.Chemscore.Internal_Hbond>
0.0000

> <Gold.Chemscore.DEClash>
0.0579

> <Gold.Chemscore.DEInternal>
1.9496

> <Gold.Chemscore.Rot>
1.5612

> <Gold.Chemscore.Internal.Correction>
   9.000000E+99

> <Gold.Chemscore.Hbonds>
donor molecule, donor type, donor heavy atom, donor atom, acceptor molecule, acceptor atom, score
      L1  H     7    30       P1  8028  0.74
      L1  H    10    31       P1  8028  0.93

> <Gold.Chemscore.Hbond.Weighted>
-6.2224

> <Gold.Chemscore.Metal.Weighted>
-0.0000

> <Gold.Chemscore.Lipo.Weighted>
-12.9256

> <Gold.Chemscore.Internal_Hbond.Weighted>
0.0000

> <Gold.Chemscore.DEClash.Weighted>
0.0579

> <Gold.Chemscore.DEInternal.Weighted>
1.9496

> <Gold.Chemscore.Rot.Weighted>
3.9966

> <Gold.Chemscore.Internal.Correction.Weighted>
   9.000000E+99

> <Gold.Protein.RotatedTorsions>
[ 6907 6896 6895 6894 ] final   51.64 input  -60.11 | X-H torsion
[ 7974 7965 7964 7962 ] final -126.08 input  175.53 | X-H torsion
[ 8008 7997 7996 7995 ] final  -81.95 input   59.86 | X-H torsion
[ 10167 10162 10161 10158 ] final -136.95 input  -65.29 | X-H torsion
[ 10718 10713 10712 10709 ] final -151.89 input   66.30 | X-H torsion
[ 10763 10752 10751 10750 ] final -129.24 input  -60.55 | X-H torsion
[ 11005 11000 10999 10996 ] final  -42.58 input  -57.11 | X-H torsion

> <Gold.Protein.ActiveResidues>
 VAL166  LYS551  ARG553  GLY616  TRP617  ASP618  TYR619  PRO620  LYS621  CYS622 
 ASP623  PHE694  ASN695  SER759  ASP760  ASP761  ALA762  ILE779  LEU786  VAL792 
 PHE793  MET794  SER795  GLU796  ALA797  LYS798  CYS799  TRP800  GLU811  SER814 

> <Gold.Protein.RotatedAtoms>
  152.3148  134.7453  160.0327 H   0  0  0  0  0  0  0  0  0  0  0  0  # atno 6907 bound_to 6896
  151.7922  133.3355  159.3510 H   0  0  0  0  0  0  0  0  0  0  0  0  # atno 6908 bound_to 6896
  150.7338  134.5762  159.5960 H   0  0  0  0  0  0  0  0  0  0  0  0  # atno 6909 bound_to 6896
  144.9909  140.7731  143.4555 H   0  0  0  0  0  0  0  0  0  0  0  0  # atno 7974 bound_to 7965
  154.6036  140.0640  156.9401 H   0  0  0  0  0  0  0  0  0  0  0  0  # atno 8008 bound_to 7997
  155.2091  140.3321  155.4313 H   0  0  0  0  0  0  0  0  0  0  0  0  # atno 8009 bound_to 7997
  156.2333  140.1851  156.7168 H   0  0  0  0  0  0  0  0  0  0  0  0  # atno 8010 bound_to 7997
  139.8627  143.7057  152.2648 H   0  0  0  0  0  0  0  0  0  0  0  0  # atno 10167 bound_to 10162
  156.4652  130.8232  151.2462 H   0  0  0  0  0  0  0  0  0  0  0  0  # atno 10718 bound_to 10713
  154.8757  135.3902  154.3888 H   0  0  0  0  0  0  0  0  0  0  0  0  # atno 10763 bound_to 10752
  153.4627  135.7029  153.6046 H   0  0  0  0  0  0  0  0  0  0  0  0  # atno 10764 bound_to 10752
  153.4538  135.3828  155.2267 H   0  0  0  0  0  0  0  0  0  0  0  0  # atno 10765 bound_to 10752
  141.0325  133.6814  156.2614 H   0  0  0  0  0  0  0  0  0  0  0  0  # atno 11005 bound_to 11000
  145.2287  139.2125  143.5054 LP  0  0  0  0  0  0  0  0  0  0  0  0  # atno 17320 bound_to 7965
  146.3431  140.2159  142.8590 LP  0  0  0  0  0  0  0  0  0  0  0  0  # atno 17321 bound_to 7965
  139.7359  144.7571  151.0729 LP  0  0  0  0  0  0  0  0  0  0  0  0  # atno 17342 bound_to 10162
  140.7773  143.5031  150.9746 LP  0  0  0  0  0  0  0  0  0  0  0  0  # atno 17343 bound_to 10162
  157.7495  131.0094  150.3266 LP  0  0  0  0  0  0  0  0  0  0  0  0  # atno 17370 bound_to 10713
  156.3675  130.3857  149.7202 LP  0  0  0  0  0  0  0  0  0  0  0  0  # atno 17371 bound_to 10713
  140.6380  134.5195  157.5566 LP  0  0  0  0  0  0  0  0  0  0  0  0  # atno 17394 bound_to 11000
  139.9218  134.8134  156.1189 LP  0  0  0  0  0  0  0  0  0  0  0  0  # atno 17395 bound_to 11000

$$$$
