AV-unprocessed.smi:625|AV-procd|sdf|3101|dock1
  -GOLD-   22720 0 23D 1   1.00000     0.00000
 Structure written by MMmdl.
 49 51  0  0  0  0  0  0  0  0  1 V2000
  146.2532  131.5048  151.6964 C   0  0  0  0  0  0  0  0  0  0  0  0
  147.2608  131.6836  152.7310 N   0  0  0  0  0  0  0  0  0  0  0  0
  147.6915  132.8755  153.1759 C   0  0  0  0  0  0  0  0  0  0  0  0
  147.2494  133.9332  152.7238 O   0  0  0  0  0  0  0  0  0  0  0  0
  148.7086  132.7829  154.2261 C   0  0  0  0  0  0  0  0  0  0  0  0
  149.3491  131.5330  154.6077 C   0  0  0  0  0  0  0  0  0  0  0  0
  150.2516  131.5029  155.6081 C   0  0  0  0  0  0  0  0  0  0  0  0
  150.6254  132.7116  156.3483 C   0  0  0  0  0  0  0  0  0  0  0  0
  151.4259  132.6832  157.2829 O   0  0  0  0  0  0  0  0  0  0  0  0
  150.0201  133.8678  155.9405 N   0  0  0  0  0  0  0  0  0  0  0  0
  150.2870  135.1479  156.6219 C   0  0  0  0  0  0  0  0  0  0  0  0
  150.7034  136.2934  155.6825 C   0  0  0  0  0  0  0  0  0  0  0  0
  150.8396  136.0656  154.4812 O   0  0  0  0  0  0  0  0  0  0  0  0
  150.8856  137.5115  156.2199 N   0  0  0  0  0  0  0  0  0  0  0  0
  151.1871  138.7420  155.4967 C   0  0  2  0  0  0  0  0  0  0  0  0
  152.5392  138.6073  154.7762 C   0  0  0  0  0  0  0  0  0  0  0  0
  151.1671  139.9192  156.5002 C   0  0  2  0  0  0  0  0  0  0  0  0
  150.0477  139.8472  157.5656 C   0  0  0  0  0  0  0  0  0  0  0  0
  149.4266  141.2549  157.5096 C   0  0  2  0  0  0  0  0  0  0  0  0
  148.5832  141.3801  156.2276 C   0  0  0  0  0  0  0  0  0  0  0  0
  149.6551  141.4671  155.1257 C   0  0  0  0  0  0  0  0  0  0  0  0
  150.9733  141.3411  155.9176 C   0  0  1  0  0  0  0  0  0  0  0  0
  150.6321  142.1283  157.1796 C   0  0  0  0  0  0  0  0  0  0  0  0
  149.0728  133.8922  154.8978 C   0  0  0  0  0  0  0  0  0  0  0  0
  146.0759  130.4425  151.5300 H   0  0  0  0  0  0  0  0  0  0  0  0
  146.5808  131.9477  150.7549 H   0  0  0  0  0  0  0  0  0  0  0  0
  145.3090  131.9662  151.9891 H   0  0  0  0  0  0  0  0  0  0  0  0
  147.6577  130.8489  153.1375 H   0  0  0  0  0  0  0  0  0  0  0  0
  149.1196  130.6065  154.1023 H   0  0  0  0  0  0  0  0  0  0  0  0
  150.7135  130.5633  155.8734 H   0  0  0  0  0  0  0  0  0  0  0  0
  149.4230  135.4736  157.2033 H   0  0  0  0  0  0  0  0  0  0  0  0
  151.0812  135.0084  157.3568 H   0  0  0  0  0  0  0  0  0  0  0  0
  150.7578  137.6015  157.2174 H   0  0  0  0  0  0  0  0  0  0  0  0
  150.4055  138.8928  154.7516 H   0  0  0  0  0  0  0  0  0  0  0  0
  152.7661  139.4989  154.1918 H   0  0  0  0  0  0  0  0  0  0  0  0
  152.5378  137.7622  154.0872 H   0  0  0  0  0  0  0  0  0  0  0  0
  153.3537  138.4568  155.4857 H   0  0  0  0  0  0  0  0  0  0  0  0
  152.1240  139.9150  157.0262 H   0  0  0  0  0  0  0  0  0  0  0  0
  149.3070  139.0736  157.3579 H   0  0  0  0  0  0  0  0  0  0  0  0
  150.4699  139.6411  158.5502 H   0  0  0  0  0  0  0  0  0  0  0  0
  148.8878  141.5319  158.4162 H   0  0  0  0  0  0  0  0  0  0  0  0
  147.9111  140.5326  156.0891 H   0  0  0  0  0  0  0  0  0  0  0  0
  147.9783  142.2874  156.2460 H   0  0  0  0  0  0  0  0  0  0  0  0
  149.5340  140.7070  154.3553 H   0  0  0  0  0  0  0  0  0  0  0  0
  149.6039  142.4370  154.6292 H   0  0  0  0  0  0  0  0  0  0  0  0
  151.8438  141.7147  155.3778 H   0  0  0  0  0  0  0  0  0  0  0  0
  150.3714  143.1701  156.9846 H   0  0  0  0  0  0  0  0  0  0  0  0
  151.4135  142.0929  157.9411 H   0  0  0  0  0  0  0  0  0  0  0  0
  148.6532  134.8702  154.7049 H   0  0  0  0  0  0  0  0  0  0  0  0
  1  2  1  0  0  0  0
  1 25  1  0  0  0  0
  1 26  1  0  0  0  0
  1 27  1  0  0  0  0
  2  3  1  0  0  0  0
  2 28  1  0  0  0  0
  3  4  2  0  0  0  0
  3  5  1  0  0  0  0
  5 24  2  0  0  0  0
  5  6  1  0  0  0  0
  6  7  2  0  0  0  0
  6 29  1  0  0  0  0
  7  8  1  0  0  0  0
  7 30  1  0  0  0  0
  8  9  2  0  0  0  0
  8 10  1  0  0  0  0
 10 11  1  0  0  0  0
 10 24  1  0  0  0  0
 11 12  1  0  0  0  0
 11 31  1  0  0  0  0
 11 32  1  0  0  0  0
 12 13  2  0  0  0  0
 12 14  1  0  0  0  0
 14 15  1  0  0  0  0
 14 33  1  0  0  0  0
 15 16  1  0  0  0  0
 15 17  1  0  0  0  0
 15 34  1  0  0  0  0
 16 35  1  0  0  0  0
 16 36  1  0  0  0  0
 16 37  1  0  0  0  0
 17 22  1  0  0  0  0
 17 18  1  0  0  0  0
 17 38  1  0  0  0  0
 18 19  1  0  0  0  0
 18 39  1  0  0  0  0
 18 40  1  0  0  0  0
 19 23  1  0  0  0  0
 19 20  1  0  0  0  0
 19 41  1  0  0  0  0
 20 21  1  0  0  0  0
 20 42  1  0  0  0  0
 20 43  1  0  0  0  0
 21 22  1  0  0  0  0
 21 44  1  0  0  0  0
 21 45  1  0  0  0  0
 22 23  1  0  0  0  0
 22 46  1  0  0  0  0
 23 47  1  0  0  0  0
 23 48  1  0  0  0  0
 24 49  1  0  0  0  0
M  END
> <s_m_source_file>
AV-unprocessed.smi

> <i_m_source_file_index>
625

> <i_lp_mmshare_version>
43012

> <i_f3d_flags>
0

> <s_epik_input>
W0NIM11bTkhdQyg9TyljMVtjSF1bY0hdYyg9TyluKFtjSF0xKVtDSDJdQyg9TylbTkhdW0NASF0oW0NIM10pW0NASF0oW0NIMl1bQ0BIXTIzKVtDQEhdKFtDSDJdMylbQ0gyXVtDSDJdMg==

> <s_epik_cmdline>
J2VwaWtfcHl0aG9uJywgJy1waCcsICc3LjAnLCAnLXRuJywgJzgnLCAnLW1hJywgJzIwMCcsICctbWV0YWxfYmluZGluZycsICctaW1hZScsICc8aW5maWxlLm1hZT4nLCAnLW9tYWUnLCAnPG91dGZpbGUubWFlPic=

> <r_lp_tautomer_probability>
1

> <r_epik_Ionization_Penalty>
3.7129e-07

> <r_epik_Ionization_Penalty_Charging>
5.04114e-08

> <r_epik_Ionization_Penalty_Neutral>
3.20879e-07

> <r_epik_State_Penalty>
-0

> <r_epik_Charging_Adjusted_Penalty>
5.04114e-08

> <i_epik_Tot_Q>
0

> <i_epik_Tot_abs_Q>
0

> <r_epik_Metal_State_Penalty>
-0

> <b_epik_Metal_Only>
0

> <s_lp_Force_Field>
OPLS_2005

> <r_lp_Energy>
63.5822

> <b_lp_Chiralities_Consistent>
1

> <s_lp_Variant>
AV-unprocessed.smi:625-1

> <Gold.Version>
5.8.1

> <Gold.Id.Protein>
6NUR|6NUR_protein|mol2

> <Gold.PLP.Fitness>
44.7174

> <Gold.PLP.PLP>
-39.7992

> <Gold.PLP.part.hbond>
-2.5098

> <Gold.PLP.part.metal>
0.0000

> <Gold.PLP.part.buried>
-5.1093

> <Gold.PLP.part.nonpolar>
-34.0079

> <Gold.PLP.part.repulsive>
1.3191

> <Gold.PLP.ligand.clash>
0.0000

> <Gold.PLP.ligand.torsion>
0.4793

> <Gold.PLP.Chemscore.Hbond>
1.9280

> <Gold.PLP.Chemscore.CHOScore>
0.0000

> <Gold.PLP.Chemscore.Metal>
0.0000

> <Gold.Chemscore.Hbonds>
donor molecule, donor type, donor heavy atom, donor atom, acceptor molecule, acceptor atom, score
      P1  H  6896  6908       L1     9  0.86
      P1  H 10752 10763       L1    13  0.73

> <Gold.PLP.Chemscore.Internal.Correction>
0.0928

> <Gold.Rescore>
     Score         DG    S(hbond)    S(metal)    S(lipo)     H(rot)  DE(clash)    DE(int)     intcor
     15.47     -17.29       1.87        0.00      84.23       1.67       0.04       1.77       ----

> <Gold.Chemscore.Fitness>
15.4742

> <Gold.Chemscore.DG>
-17.2905

> <Gold.Chemscore.ZeroCoef>
-5.4800

> <Gold.Chemscore.Hbond>
1.8662

> <Gold.Chemscore.Metal>
0.0000

> <Gold.Chemscore.Lipo>
84.2288

> <Gold.Chemscore.Internal_Hbond>
0.0000

> <Gold.Chemscore.DEClash>
0.0436

> <Gold.Chemscore.DEInternal>
1.7727

> <Gold.Chemscore.Rot>
1.6709

> <Gold.Chemscore.Internal.Correction>
   9.000000E+99

> <Gold.Chemscore.Hbonds>
donor molecule, donor type, donor heavy atom, donor atom, acceptor molecule, acceptor atom, score
      P1  H  6896  6908       L1     9  0.81
      P1  H 10752 10763       L1    13  0.33

> <Gold.Chemscore.Hbond.Weighted>
-6.2331

> <Gold.Chemscore.Metal.Weighted>
-0.0000

> <Gold.Chemscore.Lipo.Weighted>
-9.8548

> <Gold.Chemscore.Internal_Hbond.Weighted>
0.0000

> <Gold.Chemscore.DEClash.Weighted>
0.0436

> <Gold.Chemscore.DEInternal.Weighted>
1.7727

> <Gold.Chemscore.Rot.Weighted>
4.2774

> <Gold.Chemscore.Internal.Correction.Weighted>
   9.000000E+99

> <Gold.Protein.RotatedTorsions>
[ 6907 6896 6895 6894 ] final   62.94 input  -60.11 | X-H torsion
[ 7974 7965 7964 7962 ] final  -77.94 input  175.53 | X-H torsion
[ 8008 7997 7996 7995 ] final  156.96 input   59.86 | X-H torsion
[ 10167 10162 10161 10158 ] final   78.31 input  -65.29 | X-H torsion
[ 10718 10713 10712 10709 ] final -102.90 input   66.30 | X-H torsion
[ 10763 10752 10751 10750 ] final   41.41 input  -60.55 | X-H torsion
[ 11005 11000 10999 10996 ] final  -66.89 input  -57.11 | X-H torsion

> <Gold.Protein.ActiveResidues>
 VAL166  LYS551  ARG553  GLY616  TRP617  ASP618  TYR619  PRO620  LYS621  CYS622 
 ASP623  PHE694  ASN695  SER759  ASP760  ASP761  ALA762  ILE779  LEU786  VAL792 
 PHE793  MET794  SER795  GLU796  ALA797  LYS798  CYS799  TRP800  GLU811  SER814 

> <Gold.Protein.RotatedAtoms>
  152.4213  134.5950  159.9984 H   0  0  0  0  0  0  0  0  0  0  0  0  # atno 6907 bound_to 6896
  151.6098  133.3342  159.3073 H   0  0  0  0  0  0  0  0  0  0  0  0  # atno 6908 bound_to 6896
  150.8101  134.7289  159.6746 H   0  0  0  0  0  0  0  0  0  0  0  0  # atno 6909 bound_to 6896
  145.5931  140.9425  143.1282 H   0  0  0  0  0  0  0  0  0  0  0  0  # atno 7974 bound_to 7965
  156.2392  140.1898  156.7035 H   0  0  0  0  0  0  0  0  0  0  0  0  # atno 8008 bound_to 7997
  154.6165  140.0614  156.9587 H   0  0  0  0  0  0  0  0  0  0  0  0  # atno 8009 bound_to 7997
  155.1931  140.3286  155.4358 H   0  0  0  0  0  0  0  0  0  0  0  0  # atno 8010 bound_to 7997
  139.9723  144.5886  150.7974 H   0  0  0  0  0  0  0  0  0  0  0  0  # atno 10167 bound_to 10162
  156.0245  130.5442  150.7175 H   0  0  0  0  0  0  0  0  0  0  0  0  # atno 10718 bound_to 10713
  152.9909  135.6162  154.2783 H   0  0  0  0  0  0  0  0  0  0  0  0  # atno 10763 bound_to 10752
  154.2513  135.2785  155.2817 H   0  0  0  0  0  0  0  0  0  0  0  0  # atno 10764 bound_to 10752
  154.5285  135.5794  153.6797 H   0  0  0  0  0  0  0  0  0  0  0  0  # atno 10765 bound_to 10752
  141.1494  133.6708  156.6209 H   0  0  0  0  0  0  0  0  0  0  0  0  # atno 11005 bound_to 11000
  144.7343  139.7633  143.7335 LP  0  0  0  0  0  0  0  0  0  0  0  0  # atno 17320 bound_to 7965
  146.1632  139.4754  142.9975 LP  0  0  0  0  0  0  0  0  0  0  0  0  # atno 17321 bound_to 7965
  140.7518  143.2978  151.3158 LP  0  0  0  0  0  0  0  0  0  0  0  0  # atno 17342 bound_to 10162
  139.6472  144.0430  152.2599 LP  0  0  0  0  0  0  0  0  0  0  0  0  # atno 17343 bound_to 10162
  157.4799  131.0901  151.0548 LP  0  0  0  0  0  0  0  0  0  0  0  0  # atno 17370 bound_to 10713
  157.0985  130.5972  149.5455 LP  0  0  0  0  0  0  0  0  0  0  0  0  # atno 17371 bound_to 10713
  140.3541  134.7743  157.4488 LP  0  0  0  0  0  0  0  0  0  0  0  0  # atno 17394 bound_to 11000
  140.0837  134.5696  155.8514 LP  0  0  0  0  0  0  0  0  0  0  0  0  # atno 17395 bound_to 11000

$$$$
