AV-unprocessed.smi:3055|AV-procd|sdf|11644|dock6
  -GOLD-   2272017 43D 1   1.00000     0.00000
 Structure written by MMmdl.
 47 49  0  0  0  0  0  0  0  0  2 V2000
  153.2318  138.8441  157.8945 O   0  0  0  0  0  0  0  0  0  0  0  0
  152.3417  139.3711  157.2259 C   0  0  0  0  0  0  0  0  0  0  0  0
  151.5229  140.3040  157.7374 N   0  0  0  0  0  0  0  0  0  0  0  0
  151.5987  140.8158  159.0983 C   0  0  0  0  0  0  0  0  0  0  0  0
  152.6385  141.9399  159.1929 C   0  0  0  0  0  0  0  0  0  0  0  0
  152.0192  143.2450  159.0830 N   0  0  0  0  0  0  0  0  0  0  0  0
  151.1551  143.6801  158.0870 C   0  0  0  0  0  0  0  0  0  0  0  0
  150.8284  144.9821  158.3917 C   0  0  0  0  0  0  0  0  0  0  0  0
  151.4755  145.3657  159.5642 N   0  0  0  0  0  0  0  0  0  0  0  0
  152.1620  144.2857  159.9149 C   0  0  0  0  0  0  0  0  0  0  0  0
  152.0879  139.0373  155.9349 N   0  0  0  0  0  0  0  0  0  0  0  0
  152.3827  137.7424  155.3015 C   0  0  0  0  0  0  0  0  0  0  0  0
  151.0736  136.9409  155.2100 C   0  0  0  0  0  0  0  0  0  0  0  0
  149.9895  137.7346  154.4551 C   0  0  0  0  0  0  0  0  0  0  0  0
  149.8165  139.1746  155.0073 C   0  0  2  0  0  0  0  0  0  0  0  0
  148.8718  139.9764  154.1804 N   0  3  0  0  0  0  0  0  0  0  0  0
  147.5190  139.4003  154.0191 C   0  0  0  0  0  0  0  0  0  0  0  0
  146.6333  140.5746  153.6207 C   0  0  0  0  0  0  0  0  0  0  0  0
  147.1988  141.7216  154.4495 C   0  0  0  0  0  0  0  0  0  0  0  0
  148.6860  141.3825  154.6219 C   0  0  0  0  0  0  0  0  0  0  0  0
  151.2076  139.8518  155.0881 C   0  0  0  0  0  0  0  0  0  0  0  0
  150.8024  140.6856  157.1418 H   0  0  0  0  0  0  0  0  0  0  0  0
  150.6162  141.1833  159.3984 H   0  0  0  0  0  0  0  0  0  0  0  0
  151.8628  140.0050  159.7797 H   0  0  0  0  0  0  0  0  0  0  0  0
  153.1709  141.8902  160.1437 H   0  0  0  0  0  0  0  0  0  0  0  0
  153.3852  141.8398  158.4035 H   0  0  0  0  0  0  0  0  0  0  0  0
  150.8541  143.0458  157.2660 H   0  0  0  0  0  0  0  0  0  0  0  0
  150.1834  145.6671  157.8616 H   0  0  0  0  0  0  0  0  0  0  0  0
  152.7846  144.2520  160.7971 H   0  0  0  0  0  0  0  0  0  0  0  0
  152.7862  137.9132  154.3023 H   0  0  0  0  0  0  0  0  0  0  0  0
  153.1413  137.1574  155.8214 H   0  0  0  0  0  0  0  0  0  0  0  0
  151.2514  135.9873  154.7120 H   0  0  0  0  0  0  0  0  0  0  0  0
  150.7205  136.7042  156.2148 H   0  0  0  0  0  0  0  0  0  0  0  0
  150.2611  137.7832  153.3996 H   0  0  0  0  0  0  0  0  0  0  0  0
  149.0517  137.1812  154.5069 H   0  0  0  0  0  0  0  0  0  0  0  0
  149.4020  139.1068  156.0149 H   0  0  0  0  0  0  0  0  0  0  0  0
  147.5005  138.6023  153.2759 H   0  0  0  0  0  0  0  0  0  0  0  0
  147.1774  138.9896  154.9711 H   0  0  0  0  0  0  0  0  0  0  0  0
  146.7544  140.7883  152.5577 H   0  0  0  0  0  0  0  0  0  0  0  0
  145.5752  140.3928  153.8113 H   0  0  0  0  0  0  0  0  0  0  0  0
  147.0399  142.6930  153.9804 H   0  0  0  0  0  0  0  0  0  0  0  0
  146.7120  141.7413  155.4257 H   0  0  0  0  0  0  0  0  0  0  0  0
  148.9767  141.5233  155.6642 H   0  0  0  0  0  0  0  0  0  0  0  0
  149.3133  142.0328  154.0116 H   0  0  0  0  0  0  0  0  0  0  0  0
  151.1346  140.8749  155.4582 H   0  0  0  0  0  0  0  0  0  0  0  0
  151.6432  139.9382  154.0913 H   0  0  0  0  0  0  0  0  0  0  0  0
  149.2607  140.0262  153.2495 H   0  0  0  0  0  0  0  0  0  0  0  0
  1  2  2  0  0  0  0
  2  3  1  0  0  0  0
  2 11  1  0  0  0  0
  3  4  1  0  0  0  0
  3 22  1  0  0  0  0
  4  5  1  0  0  0  0
  4 23  1  0  0  0  0
  4 24  1  0  0  0  0
  5  6  1  0  0  0  0
  5 25  1  0  0  0  0
  5 26  1  0  0  0  0
  6 10  1  0  0  0  0
  6  7  1  0  0  0  0
  7  8  2  0  0  0  0
  7 27  1  0  0  0  0
  8  9  1  0  0  0  0
  8 28  1  0  0  0  0
  9 10  2  0  0  0  0
 10 29  1  0  0  0  0
 11 21  1  0  0  0  0
 11 12  1  0  0  0  0
 12 13  1  0  0  0  0
 12 30  1  0  0  0  0
 12 31  1  0  0  0  0
 13 14  1  0  0  0  0
 13 32  1  0  0  0  0
 13 33  1  0  0  0  0
 14 15  1  0  0  0  0
 14 34  1  0  0  0  0
 14 35  1  0  0  0  0
 15 16  1  0  0  0  0
 15 21  1  0  0  0  0
 15 36  1  0  0  0  0
 16 20  1  0  0  0  0
 16 17  1  0  0  0  0
 16 47  1  0  0  0  0
 17 18  1  0  0  0  0
 17 37  1  0  0  0  0
 17 38  1  0  0  0  0
 18 19  1  0  0  0  0
 18 39  1  0  0  0  0
 18 40  1  0  0  0  0
 19 20  1  0  0  0  0
 19 41  1  0  0  0  0
 19 42  1  0  0  0  0
 20 43  1  0  0  0  0
 20 44  1  0  0  0  0
 21 45  1  0  0  0  0
 21 46  1  0  0  0  0
M  CHG  1  16   1
M  END
> <s_m_source_file>
AV-unprocessed.smi

> <i_m_source_file_index>
3055

> <i_lp_mmshare_version>
43012

> <i_f3d_flags>
0

> <s_epik_input>
W2NIXTFuW2NIXVtjSF1uMVtDSDJdW0NIMl1bTkhdQyg9TylOMltDSDJdW0NIMl1bQ0gyXVtDQEhdKFtDSDJdMilOM1tDSDJdW0NIMl1bQ0gyXVtDSDJdMw==

> <s_epik_cmdline>
J2VwaWtfcHl0aG9uJywgJy1waCcsICc3LjAnLCAnLXRuJywgJzgnLCAnLW1hJywgJzIwMCcsICctbWV0YWxfYmluZGluZycsICctaW1hZScsICc8aW5maWxlLm1hZT4nLCAnLW9tYWUnLCAnPG91dGZpbGUubWFlPic=

> <r_lp_tautomer_probability>
1

> <r_epik_Ionization_Penalty>
0.618392

> <r_epik_Ionization_Penalty_Charging>
0.618355

> <r_epik_Ionization_Penalty_Neutral>
3.68592e-05

> <r_epik_State_Penalty>
0.635579

> <r_epik_Charging_Adjusted_Penalty>
1.25393

> <i_epik_Tot_Q>
1

> <i_epik_Tot_abs_Q>
1

> <r_epik_Metal_State_Penalty>
0.306847

> <b_epik_Metal_Only>
0

> <s_lp_Force_Field>
OPLS_2005

> <r_lp_Energy>
57.1272

> <b_lp_Chiralities_Consistent>
1

> <s_lp_Variant>
AV-unprocessed.smi:3055-4

> <Gold.Version>
5.8.1

> <Gold.Id.Protein>
6NUR|6NUR_protein|mol2

> <Gold.PLP.Fitness>
48.3323

> <Gold.PLP.PLP>
-42.7350

> <Gold.PLP.part.hbond>
-2.0000

> <Gold.PLP.part.metal>
0.0000

> <Gold.PLP.part.buried>
2.4891

> <Gold.PLP.part.nonpolar>
-44.2319

> <Gold.PLP.part.repulsive>
0.3757

> <Gold.PLP.ligand.clash>
1.5868

> <Gold.PLP.ligand.torsion>
0.6776

> <Gold.PLP.Chemscore.Hbond>
1.8208

> <Gold.PLP.Chemscore.CHOScore>
0.9952

> <Gold.PLP.Chemscore.Metal>
0.0000

> <Gold.Chemscore.Hbonds>
donor molecule, donor type, donor heavy atom, donor atom, acceptor molecule, acceptor atom, score
      L1  H    16    47       P1  7957  0.78
      P1  H  7997  8010       L1     1  0.68
      L1  C     8    28       P1  8028  0.01
      L1  C     8    28       P1  8029  0.72

> <Gold.PLP.Chemscore.Internal.Correction>
0.0913

> <Gold.Rescore>
     Score         DG    S(hbond)    S(metal)    S(lipo)     H(rot)  DE(clash)    DE(int)     intcor
     14.34     -17.68       1.39        0.00     104.16       1.81       2.59       0.75       ----

> <Gold.Chemscore.Fitness>
14.3433

> <Gold.Chemscore.DG>
-17.6753

> <Gold.Chemscore.ZeroCoef>
-5.4800

> <Gold.Chemscore.Hbond>
1.3874

> <Gold.Chemscore.Metal>
0.0000

> <Gold.Chemscore.Lipo>
104.1563

> <Gold.Chemscore.Internal_Hbond>
0.0000

> <Gold.Chemscore.DEClash>
2.5861

> <Gold.Chemscore.DEInternal>
0.7459

> <Gold.Chemscore.Rot>
1.8066

> <Gold.Chemscore.Internal.Correction>
   9.000000E+99

> <Gold.Chemscore.Hbonds>
donor molecule, donor type, donor heavy atom, donor atom, acceptor molecule, acceptor atom, score
      L1  H    16    47       P1  7957  0.77
      P1  H  7997  8010       L1     1  0.15

> <Gold.Chemscore.Hbond.Weighted>
-4.6339

> <Gold.Chemscore.Metal.Weighted>
-0.0000

> <Gold.Chemscore.Lipo.Weighted>
-12.1863

> <Gold.Chemscore.Internal_Hbond.Weighted>
0.0000

> <Gold.Chemscore.DEClash.Weighted>
2.5861

> <Gold.Chemscore.DEInternal.Weighted>
0.7459

> <Gold.Chemscore.Rot.Weighted>
4.6249

> <Gold.Chemscore.Internal.Correction.Weighted>
   9.000000E+99

> <Gold.Protein.RotatedTorsions>
[ 6907 6896 6895 6894 ] final  -55.34 input  -60.11 | X-H torsion
[ 7974 7965 7964 7962 ] final  164.35 input  175.53 | X-H torsion
[ 8008 7997 7996 7995 ] final   12.98 input   59.86 | X-H torsion
[ 10167 10162 10161 10158 ] final   37.13 input  -65.29 | X-H torsion
[ 10718 10713 10712 10709 ] final  127.87 input   66.30 | X-H torsion
[ 10763 10752 10751 10750 ] final  -47.56 input  -60.55 | X-H torsion
[ 11005 11000 10999 10996 ] final  -11.57 input  -57.11 | X-H torsion

> <Gold.Protein.ActiveResidues>
 VAL166  LYS551  ARG553  GLY616  TRP617  ASP618  TYR619  PRO620  LYS621  CYS622 
 ASP623  PHE694  ASN695  SER759  ASP760  ASP761  ALA762  ILE779  LEU786  VAL792 
 PHE793  MET794  SER795  GLU796  ALA797  LYS798  CYS799  TRP800  GLU811  SER814 

> <Gold.Protein.RotatedAtoms>
  150.8260  134.7491  159.6812 H   0  0  0  0  0  0  0  0  0  0  0  0  # atno 6907 bound_to 6896
  152.4371  134.5662  159.9918 H   0  0  0  0  0  0  0  0  0  0  0  0  # atno 6908 bound_to 6896
  151.5834  133.3337  159.3049 H   0  0  0  0  0  0  0  0  0  0  0  0  # atno 6909 bound_to 6896
  144.7549  139.8314  143.6353 H   0  0  0  0  0  0  0  0  0  0  0  0  # atno 7974 bound_to 7965
  154.8281  140.2895  155.5741 H   0  0  0  0  0  0  0  0  0  0  0  0  # atno 8008 bound_to 7997
  156.3003  140.2537  156.3132 H   0  0  0  0  0  0  0  0  0  0  0  0  # atno 8009 bound_to 7997
  154.9262  140.0384  157.2013 H   0  0  0  0  0  0  0  0  0  0  0  0  # atno 8010 bound_to 7997
  140.4062  144.1656  150.6136 H   0  0  0  0  0  0  0  0  0  0  0  0  # atno 10167 bound_to 10162
  157.5295  131.1098  150.9031 H   0  0  0  0  0  0  0  0  0  0  0  0  # atno 10718 bound_to 10713
  154.0635  135.6615  153.4815 H   0  0  0  0  0  0  0  0  0  0  0  0  # atno 10763 bound_to 10752
  153.0418  135.5140  154.7636 H   0  0  0  0  0  0  0  0  0  0  0  0  # atno 10764 bound_to 10752
  154.6680  135.3025  154.9747 H   0  0  0  0  0  0  0  0  0  0  0  0  # atno 10765 bound_to 10752
  140.7566  133.8549  155.9089 H   0  0  0  0  0  0  0  0  0  0  0  0  # atno 11005 bound_to 11000
  146.1546  139.4640  143.0027 LP  0  0  0  0  0  0  0  0  0  0  0  0  # atno 17320 bound_to 7965
  145.6814  141.0190  143.1604 LP  0  0  0  0  0  0  0  0  0  0  0  0  # atno 17321 bound_to 7965
  140.4687  143.2421  151.9119 LP  0  0  0  0  0  0  0  0  0  0  0  0  # atno 17342 bound_to 10162
  139.4783  144.5392  151.8553 LP  0  0  0  0  0  0  0  0  0  0  0  0  # atno 17343 bound_to 10162
  156.9617  130.5457  149.5286 LP  0  0  0  0  0  0  0  0  0  0  0  0  # atno 17370 bound_to 10713
  156.0412  130.5494  150.8774 LP  0  0  0  0  0  0  0  0  0  0  0  0  # atno 17371 bound_to 10713
  140.9702  134.1541  157.4583 LP  0  0  0  0  0  0  0  0  0  0  0  0  # atno 17394 bound_to 11000
  139.8778  134.9976  156.5854 LP  0  0  0  0  0  0  0  0  0  0  0  0  # atno 17395 bound_to 11000

$$$$
