AV-unprocessed.smi:242|AV-procd|sdf|1845|dock8
  -GOLD-   2262020463D 1   1.00000     0.00000
 Structure written by MMmdl.
 58 61  0  0  0  0  0  0  0  0  2 V2000
  144.1295  134.4011  163.2064 C   0  0  0  0  0  0  0  0  0  0  0  0
  144.8712  135.5911  163.8452 C   0  0  0  0  0  0  0  0  0  0  0  0
  144.1224  136.8977  163.5198 C   0  0  0  0  0  0  0  0  0  0  0  0
  146.2911  135.6617  163.3984 N   0  3  1  0  0  0  0  0  0  0  0  0
  147.1194  134.4745  163.7322 C   0  0  0  0  0  0  0  0  0  0  0  0
  147.9905  134.1752  162.5061 C   0  0  0  0  0  0  0  0  0  0  0  0
  147.9216  135.4575  161.6719 C   0  0  1  0  0  0  0  0  0  0  0  0
  148.2061  135.2794  160.2464 N   0  0  0  0  0  0  0  0  0  0  0  0
  147.4957  134.2039  159.5652 C   0  0  0  0  0  0  0  0  0  0  0  0
  148.1713  136.4214  159.5253 C   0  0  0  0  0  0  0  0  0  0  0  0
  146.9516  136.8976  159.1758 N   0  0  0  0  0  0  0  0  0  0  0  0
  146.8565  138.0163  158.4503 C   0  0  0  0  0  0  0  0  0  0  0  0
  147.8353  138.7937  157.9812 N   0  0  0  0  0  0  0  0  0  0  0  0
  149.0629  138.3163  158.3364 C   0  0  0  0  0  0  0  0  0  0  0  0
  149.3209  137.1479  159.1057 C   0  0  0  0  0  0  0  0  0  0  0  0
  150.6902  136.9810  159.2734 N   0  0  0  0  0  0  0  0  0  0  0  0
  151.2124  137.9950  158.6388 C   0  0  0  0  0  0  0  0  0  0  0  0
  150.3079  138.8400  158.0354 N   0  0  0  0  0  0  0  0  0  0  0  0
  150.6098  140.0331  157.2595 C   0  0  0  0  0  0  0  0  0  0  0  0
  151.0435  141.2484  158.1171 C   0  0  0  0  0  0  0  0  0  0  0  0
  149.9726  141.5748  158.9863 O   0  0  0  0  0  0  0  0  0  0  0  0
  152.2744  140.8883  158.9734 C   0  0  0  0  0  0  0  0  0  0  0  0
  152.8499  142.1119  159.7084 C   0  0  0  0  0  0  0  0  0  0  0  0
  153.1547  143.1400  158.7743 O   0  0  0  0  0  0  0  0  0  0  0  0
  152.0011  143.6208  158.0955 C   0  0  0  0  0  0  0  0  0  0  0  0
  151.3679  142.4926  157.2615 C   0  0  0  0  0  0  0  0  0  0  0  0
  146.4962  135.9281  161.9579 C   0  0  0  0  0  0  0  0  0  0  0  0
  143.0815  134.3884  163.5077 H   0  0  0  0  0  0  0  0  0  0  0  0
  144.5533  133.4437  163.5090 H   0  0  0  0  0  0  0  0  0  0  0  0
  144.1584  134.4528  162.1174 H   0  0  0  0  0  0  0  0  0  0  0  0
  144.8633  135.4508  164.9273 H   0  0  0  0  0  0  0  0  0  0  0  0
  143.0774  136.8355  163.8248 H   0  0  0  0  0  0  0  0  0  0  0  0
  144.1407  137.1076  162.4498 H   0  0  0  0  0  0  0  0  0  0  0  0
  144.5506  137.7576  164.0346 H   0  0  0  0  0  0  0  0  0  0  0  0
  147.7327  134.7077  164.6031 H   0  0  0  0  0  0  0  0  0  0  0  0
  146.5126  133.6014  163.9756 H   0  0  0  0  0  0  0  0  0  0  0  0
  149.0108  133.8986  162.7750 H   0  0  0  0  0  0  0  0  0  0  0  0
  147.5560  133.3423  161.9504 H   0  0  0  0  0  0  0  0  0  0  0  0
  148.6149  136.1895  162.0889 H   0  0  0  0  0  0  0  0  0  0  0  0
  147.6665  134.2330  158.4879 H   0  0  0  0  0  0  0  0  0  0  0  0
  146.4219  134.2728  159.7439 H   0  0  0  0  0  0  0  0  0  0  0  0
  147.8402  133.2344  159.9254 H   0  0  0  0  0  0  0  0  0  0  0  0
  145.8522  138.3333  158.2099 H   0  0  0  0  0  0  0  0  0  0  0  0
  152.2802  138.1514  158.5845 H   0  0  0  0  0  0  0  0  0  0  0  0
  151.3880  139.7828  156.5370 H   0  0  0  0  0  0  0  0  0  0  0  0
  149.7250  140.2857  156.6737 H   0  0  0  0  0  0  0  0  0  0  0  0
  150.3159  141.6816  159.8604 H   0  0  0  0  0  0  0  0  0  0  0  0
  152.0266  140.1042  159.6903 H   0  0  0  0  0  0  0  0  0  0  0  0
  153.0532  140.4771  158.3299 H   0  0  0  0  0  0  0  0  0  0  0  0
  152.1539  142.4829  160.4624 H   0  0  0  0  0  0  0  0  0  0  0  0
  153.7637  141.8342  160.2338 H   0  0  0  0  0  0  0  0  0  0  0  0
  151.2864  144.0276  158.8125 H   0  0  0  0  0  0  0  0  0  0  0  0
  152.2957  144.4437  157.4443 H   0  0  0  0  0  0  0  0  0  0  0  0
  152.0648  142.2132  156.4703 H   0  0  0  0  0  0  0  0  0  0  0  0
  150.4728  142.8675  156.7641 H   0  0  0  0  0  0  0  0  0  0  0  0
  145.7827  135.3471  161.3700 H   0  0  0  0  0  0  0  0  0  0  0  0
  146.3572  136.9837  161.7218 H   0  0  0  0  0  0  0  0  0  0  0  0
  146.7149  136.4397  163.8833 H   0  0  0  0  0  0  0  0  0  0  0  0
  1  2  1  0  0  0  0
  1 28  1  0  0  0  0
  1 29  1  0  0  0  0
  1 30  1  0  0  0  0
  2  3  1  0  0  0  0
  2  4  1  0  0  0  0
  2 31  1  0  0  0  0
  3 32  1  0  0  0  0
  3 33  1  0  0  0  0
  3 34  1  0  0  0  0
  4 27  1  0  0  0  0
  4  5  1  0  0  0  0
  4 58  1  0  0  0  0
  5  6  1  0  0  0  0
  5 35  1  0  0  0  0
  5 36  1  0  0  0  0
  6  7  1  0  0  0  0
  6 37  1  0  0  0  0
  6 38  1  0  0  0  0
  7  8  1  0  0  0  0
  7 27  1  0  0  0  0
  7 39  1  0  0  0  0
  8  9  1  0  0  0  0
  8 10  1  0  0  0  0
  9 40  1  0  0  0  0
  9 41  1  0  0  0  0
  9 42  1  0  0  0  0
 10 15  1  0  0  0  0
 10 11  2  0  0  0  0
 11 12  1  0  0  0  0
 12 13  2  0  0  0  0
 12 43  1  0  0  0  0
 13 14  1  0  0  0  0
 14 18  1  0  0  0  0
 14 15  2  0  0  0  0
 15 16  1  0  0  0  0
 16 17  2  0  0  0  0
 17 18  1  0  0  0  0
 17 44  1  0  0  0  0
 18 19  1  0  0  0  0
 19 20  1  0  0  0  0
 19 45  1  0  0  0  0
 19 46  1  0  0  0  0
 20 26  1  0  0  0  0
 20 21  1  0  0  0  0
 20 22  1  0  0  0  0
 21 47  1  0  0  0  0
 22 23  1  0  0  0  0
 22 48  1  0  0  0  0
 22 49  1  0  0  0  0
 23 24  1  0  0  0  0
 23 50  1  0  0  0  0
 23 51  1  0  0  0  0
 24 25  1  0  0  0  0
 25 26  1  0  0  0  0
 25 52  1  0  0  0  0
 25 53  1  0  0  0  0
 26 54  1  0  0  0  0
 26 55  1  0  0  0  0
 27 56  1  0  0  0  0
 27 57  1  0  0  0  0
M  CHG  1   4   1
M  END
> <s_m_source_file>
AV-unprocessed.smi

> <i_m_source_file_index>
242

> <i_lp_mmshare_version>
43012

> <i_f3d_flags>
0

> <s_epik_input>
W0NIM11bQ0hdKFtDSDNdKU4xW0NIMl1bQ0gyXVtDQEhdKFtDSDJdMSlOKFtDSDNdKWMobltjSF1uMiljKGMyMyluW2NIXW4zW0NIMl1DNChbT0hdKVtDSDJdW0NIMl1PW0NIMl1bQ0gyXTQ=

> <s_epik_cmdline>
J2VwaWtfcHl0aG9uJywgJy1waCcsICc3LjAnLCAnLXRuJywgJzgnLCAnLW1hJywgJzIwMCcsICctbWV0YWxfYmluZGluZycsICctaW1hZScsICc8aW5maWxlLm1hZT4nLCAnLW9tYWUnLCAnPG91dGZpbGUubWFlPic=

> <r_lp_tautomer_probability>
1

> <r_epik_Ionization_Penalty>
0.000825961

> <r_epik_Ionization_Penalty_Charging>
0.00034898

> <r_epik_Ionization_Penalty_Neutral>
0.000476981

> <r_epik_State_Penalty>
-0

> <r_epik_Charging_Adjusted_Penalty>
0.00034898

> <i_epik_Tot_Q>
1

> <i_epik_Tot_abs_Q>
1

> <r_epik_Metal_State_Penalty>
-0

> <b_epik_Metal_Only>
0

> <s_lp_Force_Field>
OPLS_2005

> <r_lp_Energy>
46.4754

> <b_lp_Chiralities_Consistent>
1

> <s_lp_Variant>
AV-unprocessed.smi:242-2

> <Gold.Version>
5.8.1

> <Gold.Id.Protein>
6NUR|6NUR_protein|mol2

> <Gold.PLP.Fitness>
40.5046

> <Gold.PLP.PLP>
-38.2223

> <Gold.PLP.part.hbond>
-1.8005

> <Gold.PLP.part.metal>
0.0000

> <Gold.PLP.part.buried>
-5.7566

> <Gold.PLP.part.nonpolar>
-32.2987

> <Gold.PLP.part.repulsive>
0.0617

> <Gold.PLP.ligand.clash>
0.0000

> <Gold.PLP.ligand.torsion>
0.5314

> <Gold.PLP.Chemscore.Hbond>
0.9750

> <Gold.PLP.Chemscore.CHOScore>
0.0000

> <Gold.PLP.Chemscore.Metal>
0.0000

> <Gold.Chemscore.Hbonds>
donor molecule, donor type, donor heavy atom, donor atom, acceptor molecule, acceptor atom, score
      P1  H  6896  6907       L1    16  0.91

> <Gold.PLP.Chemscore.Internal.Correction>
0.4200

> <Gold.Rescore>
     Score         DG    S(hbond)    S(metal)    S(lipo)     H(rot)  DE(clash)    DE(int)     intcor
     10.74     -12.65       0.85        0.00      91.76       2.50       0.39       1.52       ----

> <Gold.Chemscore.Fitness>
10.7400

> <Gold.Chemscore.DG>
-12.6488

> <Gold.Chemscore.ZeroCoef>
-5.4800

> <Gold.Chemscore.Hbond>
0.8478

> <Gold.Chemscore.Metal>
0.0000

> <Gold.Chemscore.Lipo>
91.7615

> <Gold.Chemscore.Internal_Hbond>
0.0000

> <Gold.Chemscore.DEClash>
0.3900

> <Gold.Chemscore.DEInternal>
1.5188

> <Gold.Chemscore.Rot>
2.4996

> <Gold.Chemscore.Internal.Correction>
   9.000000E+99

> <Gold.Chemscore.Hbonds>
donor molecule, donor type, donor heavy atom, donor atom, acceptor molecule, acceptor atom, score
      P1  H  6896  6907       L1    16  0.52

> <Gold.Chemscore.Hbond.Weighted>
-2.8317

> <Gold.Chemscore.Metal.Weighted>
-0.0000

> <Gold.Chemscore.Lipo.Weighted>
-10.7361

> <Gold.Chemscore.Internal_Hbond.Weighted>
0.0000

> <Gold.Chemscore.DEClash.Weighted>
0.3900

> <Gold.Chemscore.DEInternal.Weighted>
1.5188

> <Gold.Chemscore.Rot.Weighted>
6.3990

> <Gold.Chemscore.Internal.Correction.Weighted>
   9.000000E+99

> <Gold.Protein.RotatedTorsions>
[ 6907 6896 6895 6894 ] final  -38.45 input  -60.11 | X-H torsion
[ 7974 7965 7964 7962 ] final   85.37 input  175.53 | X-H torsion
[ 8008 7997 7996 7995 ] final  -25.50 input   59.86 | X-H torsion
[ 10167 10162 10161 10158 ] final  -58.56 input  -65.29 | X-H torsion
[ 10718 10713 10712 10709 ] final  -28.25 input   66.30 | X-H torsion
[ 10763 10752 10751 10750 ] final  -66.22 input  -60.55 | X-H torsion
[ 11005 11000 10999 10996 ] final   32.36 input  -57.11 | X-H torsion

> <Gold.Protein.ActiveResidues>
 VAL166  LYS551  ARG553  GLY616  TRP617  ASP618  TYR619  PRO620  LYS621  CYS622 
 ASP623  PHE694  ASN695  SER759  ASP760  ASP761  ALA762  ILE779  LEU786  VAL792 
 PHE793  MET794  SER795  GLU796  ALA797  LYS798  CYS799  TRP800  GLU811  SER814 

> <Gold.Protein.RotatedAtoms>
  151.0023  134.9331  159.7960 H   0  0  0  0  0  0  0  0  0  0  0  0  # atno 6907 bound_to 6896
  152.5281  134.3138  159.9133 H   0  0  0  0  0  0  0  0  0  0  0  0  # atno 6908 bound_to 6896
  151.3144  133.4025  159.2684 H   0  0  0  0  0  0  0  0  0  0  0  0  # atno 6909 bound_to 6896
  145.5864  139.2332  143.2324 H   0  0  0  0  0  0  0  0  0  0  0  0  # atno 7974 bound_to 7965
  154.4472  140.1924  156.0630 H   0  0  0  0  0  0  0  0  0  0  0  0  # atno 8008 bound_to 7997
  156.0569  140.3301  155.7388 H   0  0  0  0  0  0  0  0  0  0  0  0  # atno 8009 bound_to 7997
  155.5472  140.0591  157.2848 H   0  0  0  0  0  0  0  0  0  0  0  0  # atno 8010 bound_to 7997
  140.6189  143.2412  151.5528 H   0  0  0  0  0  0  0  0  0  0  0  0  # atno 10167 bound_to 10162
  156.4276  130.4439  149.7139 H   0  0  0  0  0  0  0  0  0  0  0  0  # atno 10718 bound_to 10713
  154.3567  135.6125  153.5669 H   0  0  0  0  0  0  0  0  0  0  0  0  # atno 10763 bound_to 10752
  152.9795  135.5805  154.4681 H   0  0  0  0  0  0  0  0  0  0  0  0  # atno 10764 bound_to 10752
  154.4411  135.2850  155.1824 H   0  0  0  0  0  0  0  0  0  0  0  0  # atno 10765 bound_to 10752
  140.2743  134.3046  155.7819 H   0  0  0  0  0  0  0  0  0  0  0  0  # atno 11005 bound_to 11000
  146.1679  140.6690  142.9247 LP  0  0  0  0  0  0  0  0  0  0  0  0  # atno 17320 bound_to 7965
  144.7371  140.4838  143.6896 LP  0  0  0  0  0  0  0  0  0  0  0  0  # atno 17321 bound_to 7965
  139.5422  144.2617  152.1373 LP  0  0  0  0  0  0  0  0  0  0  0  0  # atno 17342 bound_to 10162
  140.1833  144.4823  150.6517 LP  0  0  0  0  0  0  0  0  0  0  0  0  # atno 17343 bound_to 10162
  156.4055  130.7696  151.2706 LP  0  0  0  0  0  0  0  0  0  0  0  0  # atno 17370 bound_to 10713
  157.7508  131.0227  150.3803 LP  0  0  0  0  0  0  0  0  0  0  0  0  # atno 17371 bound_to 10713
  141.2173  133.7486  156.9382 LP  0  0  0  0  0  0  0  0  0  0  0  0  # atno 17394 bound_to 11000
  140.1344  134.9335  157.2381 LP  0  0  0  0  0  0  0  0  0  0  0  0  # atno 17395 bound_to 11000

$$$$
