AV-unprocessed.smi:1145|AV-procd|sdf|4883|dock10
  -GOLD-   22720 3453D 1   1.00000     0.00000
 Structure written by MMmdl.
 36 37  0  0  0  0  0  0  0  0  1 V2000
  151.2863  140.8946  158.0486 C   0  0  0  0  0  0  0  0  0  0  0  0
  150.5079  142.0270  157.3650 C   0  0  1  0  0  0  0  0  0  0  0  0
  151.3837  143.2870  157.1947 C   0  0  0  0  0  0  0  0  0  0  0  0
  151.4756  144.0783  158.4091 N   0  0  0  0  0  0  0  0  0  0  0  0
  150.8445  145.2681  158.7064 C   0  0  0  0  0  0  0  0  0  0  0  0
  151.2224  145.6239  159.9690 C   0  0  0  0  0  0  0  0  0  0  0  0
  152.1018  144.5778  160.3655 C   0  0  0  0  0  0  0  0  0  0  0  0
  152.2548  143.6564  159.4281 N   0  0  0  0  0  0  0  0  0  0  0  0
  150.0224  141.5540  156.0689 N   0  0  0  0  0  0  0  0  0  0  0  0
  149.0271  140.6732  155.8774 C   0  0  0  0  0  0  0  0  0  0  0  0
  148.4189  140.1273  156.7985 O   0  0  0  0  0  0  0  0  0  0  0  0
  148.6466  140.3816  154.4202 C   0  0  2  0  0  0  0  0  0  0  0  0
  147.2136  140.8548  154.1271 C   0  0  0  0  0  0  0  0  0  0  0  0
  146.8464  140.6227  152.6527 C   0  0  0  0  0  0  0  0  0  0  0  0
  147.2336  139.2278  152.1391 C   0  0  0  0  0  0  0  0  0  0  0  0
  146.7236  138.8015  151.1056 O   0  0  0  0  0  0  0  0  0  0  0  0
  148.1535  138.5162  152.8140 N   0  0  0  0  0  0  0  0  0  0  0  0
  148.7634  138.8772  154.0941 C   0  0  0  0  0  0  0  0  0  0  0  0
  151.6394  141.2008  159.0337 H   0  0  0  0  0  0  0  0  0  0  0  0
  152.1561  140.5980  157.4613 H   0  0  0  0  0  0  0  0  0  0  0  0
  150.6588  140.0132  158.1845 H   0  0  0  0  0  0  0  0  0  0  0  0
  149.6630  142.2709  158.0119 H   0  0  0  0  0  0  0  0  0  0  0  0
  152.3956  143.0040  156.9006 H   0  0  0  0  0  0  0  0  0  0  0  0
  150.9938  143.9186  156.3952 H   0  0  0  0  0  0  0  0  0  0  0  0
  150.1802  145.7520  158.0056 H   0  0  0  0  0  0  0  0  0  0  0  0
  150.9164  146.4972  160.5257 H   0  0  0  0  0  0  0  0  0  0  0  0
  152.6304  144.4614  161.3002 H   0  0  0  0  0  0  0  0  0  0  0  0
  150.4631  141.9489  155.2507 H   0  0  0  0  0  0  0  0  0  0  0  0
  149.3265  140.9298  153.7649 H   0  0  0  0  0  0  0  0  0  0  0  0
  146.5033  140.3256  154.7647 H   0  0  0  0  0  0  0  0  0  0  0  0
  147.1081  141.9144  154.3645 H   0  0  0  0  0  0  0  0  0  0  0  0
  145.7779  140.7820  152.5045 H   0  0  0  0  0  0  0  0  0  0  0  0
  147.3603  141.3560  152.0306 H   0  0  0  0  0  0  0  0  0  0  0  0
  148.4098  137.6162  152.4342 H   0  0  0  0  0  0  0  0  0  0  0  0
  149.8114  138.5766  154.0773 H   0  0  0  0  0  0  0  0  0  0  0  0
  148.2786  138.2745  154.8637 H   0  0  0  0  0  0  0  0  0  0  0  0
  1  2  1  0  0  0  0
  1 19  1  0  0  0  0
  1 20  1  0  0  0  0
  1 21  1  0  0  0  0
  2  3  1  0  0  0  0
  2  9  1  0  0  0  0
  2 22  1  0  0  0  0
  3  4  1  0  0  0  0
  3 23  1  0  0  0  0
  3 24  1  0  0  0  0
  4  8  1  0  0  0  0
  4  5  1  0  0  0  0
  5  6  2  0  0  0  0
  5 25  1  0  0  0  0
  6  7  1  0  0  0  0
  6 26  1  0  0  0  0
  7  8  2  0  0  0  0
  7 27  1  0  0  0  0
  9 10  1  0  0  0  0
  9 28  1  0  0  0  0
 10 11  2  0  0  0  0
 10 12  1  0  0  0  0
 12 18  1  0  0  0  0
 12 13  1  0  0  0  0
 12 29  1  0  0  0  0
 13 14  1  0  0  0  0
 13 30  1  0  0  0  0
 13 31  1  0  0  0  0
 14 15  1  0  0  0  0
 14 32  1  0  0  0  0
 14 33  1  0  0  0  0
 15 16  2  0  0  0  0
 15 17  1  0  0  0  0
 17 18  1  0  0  0  0
 17 34  1  0  0  0  0
 18 35  1  0  0  0  0
 18 36  1  0  0  0  0
M  END
> <s_m_source_file>
AV-unprocessed.smi

> <i_m_source_file_index>
1145

> <i_lp_mmshare_version>
43012

> <i_f3d_flags>
0

> <s_epik_input>
bjFbY0hdW2NIXVtjSF1uMVtDSDJdW0NAQEhdKFtDSDNdKVtOSF1DKD1PKVtDQEBIXTJbQ0gyXVtDSDJdQyg9TylbTkhdW0NIMl0y

> <s_epik_cmdline>
J2VwaWtfcHl0aG9uJywgJy1waCcsICc3LjAnLCAnLXRuJywgJzgnLCAnLW1hJywgJzIwMCcsICctbWV0YWxfYmluZGluZycsICctaW1hZScsICc8aW5maWxlLm1hZT4nLCAnLW9tYWUnLCAnPG91dGZpbGUubWFlPic=

> <r_lp_tautomer_probability>
1

> <r_epik_Ionization_Penalty>
0.000314064

> <r_epik_Ionization_Penalty_Charging>
0

> <r_epik_Ionization_Penalty_Neutral>
0.000314064

> <r_epik_State_Penalty>
-0

> <r_epik_Charging_Adjusted_Penalty>
0

> <i_epik_Tot_Q>
0

> <i_epik_Tot_abs_Q>
0

> <r_epik_Metal_State_Penalty>
-0

> <b_epik_Metal_Only>
0

> <s_lp_Force_Field>
OPLS_2005

> <r_lp_Energy>
11.8785

> <b_lp_Chiralities_Consistent>
1

> <s_lp_Variant>
AV-unprocessed.smi:1145-2

> <Gold.Version>
5.8.1

> <Gold.Id.Protein>
6NUR|6NUR_protein|mol2

> <Gold.PLP.Fitness>
42.7147

> <Gold.PLP.PLP>
-35.2648

> <Gold.PLP.part.hbond>
-3.0000

> <Gold.PLP.part.metal>
0.0000

> <Gold.PLP.part.buried>
-2.4246

> <Gold.PLP.part.nonpolar>
-30.9413

> <Gold.PLP.part.repulsive>
1.3890

> <Gold.PLP.ligand.clash>
0.0000

> <Gold.PLP.ligand.torsion>
0.5837

> <Gold.PLP.Chemscore.Hbond>
1.8746

> <Gold.PLP.Chemscore.CHOScore>
0.9932

> <Gold.PLP.Chemscore.Metal>
0.0000

> <Gold.Chemscore.Hbonds>
donor molecule, donor type, donor heavy atom, donor atom, acceptor molecule, acceptor atom, score
      L1  H    17    34       P1  7948  1.00
      P1  H  7954  7966       L1    16  0.78
      L1  C     5    25       P1  8029  0.90

> <Gold.PLP.Chemscore.Internal.Correction>
0.0137

> <Gold.Rescore>
     Score         DG    S(hbond)    S(metal)    S(lipo)     H(rot)  DE(clash)    DE(int)     intcor
     13.34     -16.43       1.68        0.00      85.11       1.80       2.50       0.60       ----

> <Gold.Chemscore.Fitness>
13.3404

> <Gold.Chemscore.DG>
-16.4332

> <Gold.Chemscore.ZeroCoef>
-5.4800

> <Gold.Chemscore.Hbond>
1.6763

> <Gold.Chemscore.Metal>
0.0000

> <Gold.Chemscore.Lipo>
85.1090

> <Gold.Chemscore.Internal_Hbond>
0.0000

> <Gold.Chemscore.DEClash>
2.4977

> <Gold.Chemscore.DEInternal>
0.5951

> <Gold.Chemscore.Rot>
1.7982

> <Gold.Chemscore.Internal.Correction>
   9.000000E+99

> <Gold.Chemscore.Hbonds>
donor molecule, donor type, donor heavy atom, donor atom, acceptor molecule, acceptor atom, score
      L1  H    17    34       P1  7948  0.97
      P1  H  7954  7966       L1    16  0.59

> <Gold.Chemscore.Hbond.Weighted>
-5.5989

> <Gold.Chemscore.Metal.Weighted>
-0.0000

> <Gold.Chemscore.Lipo.Weighted>
-9.9577

> <Gold.Chemscore.Internal_Hbond.Weighted>
0.0000

> <Gold.Chemscore.DEClash.Weighted>
2.4977

> <Gold.Chemscore.DEInternal.Weighted>
0.5951

> <Gold.Chemscore.Rot.Weighted>
4.6035

> <Gold.Chemscore.Internal.Correction.Weighted>
   9.000000E+99

> <Gold.Protein.RotatedTorsions>
[ 6907 6896 6895 6894 ] final  160.08 input  -60.11 | X-H torsion
[ 7974 7965 7964 7962 ] final  -38.64 input  175.53 | X-H torsion
[ 8008 7997 7996 7995 ] final   62.52 input   59.86 | X-H torsion
[ 10167 10162 10161 10158 ] final -168.50 input  -65.29 | X-H torsion
[ 10718 10713 10712 10709 ] final -148.05 input   66.30 | X-H torsion
[ 10763 10752 10751 10750 ] final -145.16 input  -60.55 | X-H torsion
[ 11005 11000 10999 10996 ] final  -31.50 input  -57.11 | X-H torsion

> <Gold.Protein.ActiveResidues>
 VAL166  LYS551  ARG553  GLY616  TRP617  ASP618  TYR619  PRO620  LYS621  CYS622 
 ASP623  PHE694  ASN695  SER759  ASP760  ASP761  ALA762  ILE779  LEU786  VAL792 
 PHE793  MET794  SER795  GLU796  ALA797  LYS798  CYS799  TRP800  GLU811  SER814 

> <Gold.Protein.RotatedAtoms>
  151.9759  133.3741  159.4088 H   0  0  0  0  0  0  0  0  0  0  0  0  # atno 6907 bound_to 6896
  150.6942  134.4090  159.5162 H   0  0  0  0  0  0  0  0  0  0  0  0  # atno 6908 bound_to 6896
  152.1802  134.8761  160.0578 H   0  0  0  0  0  0  0  0  0  0  0  0  # atno 6909 bound_to 6896
  146.0468  140.6535  142.9061 H   0  0  0  0  0  0  0  0  0  0  0  0  # atno 7974 bound_to 7965
  155.6157  140.3495  155.4636 H   0  0  0  0  0  0  0  0  0  0  0  0  # atno 8008 bound_to 7997
  156.0119  140.1235  157.0469 H   0  0  0  0  0  0  0  0  0  0  0  0  # atno 8009 bound_to 7997
  154.4284  140.1080  156.5828 H   0  0  0  0  0  0  0  0  0  0  0  0  # atno 8010 bound_to 7997
  139.5981  144.1068  152.1712 H   0  0  0  0  0  0  0  0  0  0  0  0  # atno 10167 bound_to 10162
  156.4153  130.8002  151.2222 H   0  0  0  0  0  0  0  0  0  0  0  0  # atno 10718 bound_to 10713
  154.8396  135.3421  154.6460 H   0  0  0  0  0  0  0  0  0  0  0  0  # atno 10763 bound_to 10752
  153.7072  135.6966  153.5052 H   0  0  0  0  0  0  0  0  0  0  0  0  # atno 10764 bound_to 10752
  153.2479  135.4363  155.0720 H   0  0  0  0  0  0  0  0  0  0  0  0  # atno 10765 bound_to 10752
  140.9474  133.7242  156.1167 H   0  0  0  0  0  0  0  0  0  0  0  0  # atno 11005 bound_to 11000
  144.7102  140.4009  143.7086 LP  0  0  0  0  0  0  0  0  0  0  0  0  # atno 17320 bound_to 7965
  145.6792  139.1615  143.2710 LP  0  0  0  0  0  0  0  0  0  0  0  0  # atno 17321 bound_to 7965
  140.0658  144.5819  150.7228 LP  0  0  0  0  0  0  0  0  0  0  0  0  # atno 17342 bound_to 10162
  140.7228  143.2606  151.4221 LP  0  0  0  0  0  0  0  0  0  0  0  0  # atno 17343 bound_to 10162
  157.7508  131.0245  150.3878 LP  0  0  0  0  0  0  0  0  0  0  0  0  # atno 17370 bound_to 10713
  156.4184  130.3948  149.6842 LP  0  0  0  0  0  0  0  0  0  0  0  0  # atno 17371 bound_to 10713
  140.7651  134.3896  157.5518 LP  0  0  0  0  0  0  0  0  0  0  0  0  # atno 17394 bound_to 11000
  139.8837  134.8986  156.2748 LP  0  0  0  0  0  0  0  0  0  0  0  0  # atno 17395 bound_to 11000

$$$$
