AV-unprocessed.smi:9|AV-procd|sdf|52|dock8
  -GOLD-   2262015173D 1   1.00000     0.00000
 Structure written by MMmdl.
 35 37  0  0  0  0  0  0  0  0  1 V2000
  151.1172  132.8529  157.2891 O   0  0  0  0  0  0  0  0  0  0  0  0
  150.5956  132.3230  156.3105 C   0  0  0  0  0  0  0  0  0  0  0  0
  150.7574  131.0166  155.9881 N   0  0  0  0  0  0  0  0  0  0  0  0
  150.1511  130.4100  154.8581 C   0  0  0  0  0  0  0  0  0  0  0  0
  150.5185  128.9376  154.7622 C   0  0  0  0  0  0  0  0  0  0  0  0
  150.1886  128.2848  155.8777 F   0  0  0  0  0  0  0  0  0  0  0  0
  149.8800  128.3638  153.7420 F   0  0  0  0  0  0  0  0  0  0  0  0
  151.8306  128.7950  154.5724 F   0  0  0  0  0  0  0  0  0  0  0  0
  149.3734  131.0058  153.9908 N   0  0  0  0  0  0  0  0  0  0  0  0
  149.2000  132.3403  154.2992 C   0  0  0  0  0  0  0  0  0  0  0  0
  149.7208  133.0444  155.3535 C   0  0  0  0  0  0  0  0  0  0  0  0
  149.3084  134.3710  155.3280 N   0  0  0  0  0  0  0  0  0  0  0  0
  148.5450  134.4093  154.2378 C   0  0  0  0  0  0  0  0  0  0  0  0
  148.4399  133.2461  153.5663 N   0  0  0  0  0  0  0  0  0  0  0  0
  147.6785  133.0011  152.3490 C   0  0  0  0  0  0  0  0  0  0  0  0
  146.1624  133.3029  152.4719 C   0  0  2  0  0  0  0  0  0  0  0  0
  145.6831  132.6073  153.6080 O   0  0  0  0  0  0  0  0  0  0  0  0
  145.3750  132.8441  151.2243 C   0  0  0  0  0  0  0  0  0  0  0  0
  143.9385  133.3763  151.2311 C   0  0  0  0  0  0  0  0  0  0  0  0
  143.9375  134.8923  151.4565 C   0  0  0  0  0  0  0  0  0  0  0  0
  144.5729  135.1784  152.6946 O   0  0  0  0  0  0  0  0  0  0  0  0
  145.9502  134.8129  152.7355 C   0  0  0  0  0  0  0  0  0  0  0  0
  151.3398  130.4502  156.5875 H   0  0  0  0  0  0  0  0  0  0  0  0
  148.0513  135.3137  153.9130 H   0  0  0  0  0  0  0  0  0  0  0  0
  148.1192  133.5891  151.5427 H   0  0  0  0  0  0  0  0  0  0  0  0
  147.8249  131.9563  152.0712 H   0  0  0  0  0  0  0  0  0  0  0  0
  146.4178  132.1949  154.0360 H   0  0  0  0  0  0  0  0  0  0  0  0
  145.8767  133.2137  150.3289 H   0  0  0  0  0  0  0  0  0  0  0  0
  145.3648  131.7565  151.1439 H   0  0  0  0  0  0  0  0  0  0  0  0
  143.4454  133.1348  150.2891 H   0  0  0  0  0  0  0  0  0  0  0  0
  143.3634  132.8883  152.0187 H   0  0  0  0  0  0  0  0  0  0  0  0
  144.4410  135.4138  150.6409 H   0  0  0  0  0  0  0  0  0  0  0  0
  142.9138  135.2653  151.4915 H   0  0  0  0  0  0  0  0  0  0  0  0
  146.3636  135.0981  153.7039 H   0  0  0  0  0  0  0  0  0  0  0  0
  146.4829  135.4036  151.9885 H   0  0  0  0  0  0  0  0  0  0  0  0
  1  2  2  0  0  0  0
  2 11  1  0  0  0  0
  2  3  1  0  0  0  0
  3 23  1  0  0  0  0
  3  4  1  0  0  0  0
  4  5  1  0  0  0  0
  4  9  2  0  0  0  0
  5  6  1  0  0  0  0
  5  7  1  0  0  0  0
  5  8  1  0  0  0  0
  9 10  1  0  0  0  0
 10 14  1  0  0  0  0
 10 11  2  0  0  0  0
 11 12  1  0  0  0  0
 12 13  2  0  0  0  0
 13 14  1  0  0  0  0
 13 24  1  0  0  0  0
 14 15  1  0  0  0  0
 15 16  1  0  0  0  0
 15 25  1  0  0  0  0
 15 26  1  0  0  0  0
 16 22  1  0  0  0  0
 16 17  1  0  0  0  0
 16 18  1  0  0  0  0
 17 27  1  0  0  0  0
 18 19  1  0  0  0  0
 18 28  1  0  0  0  0
 18 29  1  0  0  0  0
 19 20  1  0  0  0  0
 19 30  1  0  0  0  0
 19 31  1  0  0  0  0
 20 21  1  0  0  0  0
 20 32  1  0  0  0  0
 20 33  1  0  0  0  0
 21 22  1  0  0  0  0
 22 34  1  0  0  0  0
 22 35  1  0  0  0  0
M  END
> <s_m_source_file>
AV-unprocessed.smi

> <i_m_source_file_index>
9

> <i_lp_mmshare_version>
43012

> <i_f3d_flags>
0

> <s_epik_input>
RkMoRikoRiljKG4xKVtuSF1jKD1PKWMoYzEyKW5bY0hdbjJbQ0gyXVtDQEBdMyhbT0hdKVtDSDJdW0NIMl1bQ0gyXU9bQ0gyXTM=

> <s_epik_cmdline>
J2VwaWtfcHl0aG9uJywgJy1waCcsICc3LjAnLCAnLXRuJywgJzgnLCAnLW1hJywgJzIwMCcsICctbWV0YWxfYmluZGluZycsICctaW1hZScsICc8aW5maWxlLm1hZT4nLCAnLW9tYWUnLCAnPG91dGZpbGUubWFlPic=

> <r_lp_tautomer_probability>
0.85571

> <r_epik_Ionization_Penalty>
0.770127

> <r_epik_Ionization_Penalty_Charging>
0.770101

> <r_epik_Ionization_Penalty_Neutral>
2.64604e-05

> <r_epik_State_Penalty>
2.30539

> <r_epik_Charging_Adjusted_Penalty>
3.07549

> <i_epik_Tot_Q>
0

> <i_epik_Tot_abs_Q>
0

> <r_epik_Metal_State_Penalty>
2.4903

> <b_epik_Metal_Only>
0

> <s_lp_Force_Field>
OPLS_2005

> <r_lp_Energy>
27.1686

> <b_lp_Chiralities_Consistent>
1

> <s_lp_Variant>
AV-unprocessed.smi:9-4

> <Gold.Version>
5.8.1

> <Gold.Id.Protein>
6NUR|6NUR_protein|mol2

> <Gold.PLP.Fitness>
36.1586

> <Gold.PLP.PLP>
-31.4055

> <Gold.PLP.part.hbond>
-1.1418

> <Gold.PLP.part.metal>
0.0000

> <Gold.PLP.part.buried>
-1.5779

> <Gold.PLP.part.nonpolar>
-28.8787

> <Gold.PLP.part.repulsive>
0.2329

> <Gold.PLP.ligand.clash>
0.0000

> <Gold.PLP.ligand.torsion>
0.0780

> <Gold.PLP.Chemscore.Hbond>
0.9920

> <Gold.PLP.Chemscore.CHOScore>
0.6426

> <Gold.PLP.Chemscore.Metal>
0.0000

> <Gold.Chemscore.Hbonds>
donor molecule, donor type, donor heavy atom, donor atom, acceptor molecule, acceptor atom, score
      P1  H  6896  6907       L1     1  1.00
      L1  C    13    24       P1  7948  0.65

> <Gold.PLP.Chemscore.Internal.Correction>
0.0054

> <Gold.Rescore>
     Score         DG    S(hbond)    S(metal)    S(lipo)     H(rot)  DE(clash)    DE(int)     intcor
      8.69      -8.94       1.00        0.00      47.89       2.14       0.16       0.09       ----

> <Gold.Chemscore.Fitness>
8.6882

> <Gold.Chemscore.DG>
-8.9408

> <Gold.Chemscore.ZeroCoef>
-5.4800

> <Gold.Chemscore.Hbond>
0.9968

> <Gold.Chemscore.Metal>
0.0000

> <Gold.Chemscore.Lipo>
47.8873

> <Gold.Chemscore.Internal_Hbond>
0.0000

> <Gold.Chemscore.DEClash>
0.1616

> <Gold.Chemscore.DEInternal>
0.0910

> <Gold.Chemscore.Rot>
2.1373

> <Gold.Chemscore.Internal.Correction>
   9.000000E+99

> <Gold.Chemscore.Hbonds>
donor molecule, donor type, donor heavy atom, donor atom, acceptor molecule, acceptor atom, score
      P1  H  6896  6907       L1     1  0.92

> <Gold.Chemscore.Hbond.Weighted>
-3.3294

> <Gold.Chemscore.Metal.Weighted>
-0.0000

> <Gold.Chemscore.Lipo.Weighted>
-5.6028

> <Gold.Chemscore.Internal_Hbond.Weighted>
0.0000

> <Gold.Chemscore.DEClash.Weighted>
0.1616

> <Gold.Chemscore.DEInternal.Weighted>
0.0910

> <Gold.Chemscore.Rot.Weighted>
5.4714

> <Gold.Chemscore.Internal.Correction.Weighted>
   9.000000E+99

> <Gold.Protein.RotatedTorsions>
[ 6907 6896 6895 6894 ] final -153.38 input  -60.11 | X-H torsion
[ 7974 7965 7964 7962 ] final  -85.90 input  175.53 | X-H torsion
[ 8008 7997 7996 7995 ] final -179.39 input   59.86 | X-H torsion
[ 10167 10162 10161 10158 ] final  -25.49 input  -65.29 | X-H torsion
[ 10718 10713 10712 10709 ] final -147.31 input   66.30 | X-H torsion
[ 10763 10752 10751 10750 ] final  124.39 input  -60.55 | X-H torsion
[ 11005 11000 10999 10996 ] final -167.70 input  -57.11 | X-H torsion

> <Gold.Protein.ActiveResidues>
 VAL166  LYS551  ARG553  GLY616  TRP617  ASP618  TYR619  PRO620  LYS621  CYS622 
 ASP623  PHE694  ASN695  SER759  ASP760  ASP761  ALA762  ILE779  LEU786  VAL792 
 PHE793  MET794  SER795  GLU796  ALA797  LYS798  CYS799  TRP800  GLU811  SER814 

> <Gold.Protein.RotatedAtoms>
  151.2417  133.4396  159.2607 H   0  0  0  0  0  0  0  0  0  0  0  0  # atno 6907 bound_to 6896
  151.0699  134.9792  159.8313 H   0  0  0  0  0  0  0  0  0  0  0  0  # atno 6908 bound_to 6896
  152.5410  134.2363  159.8897 H   0  0  0  0  0  0  0  0  0  0  0  0  # atno 6909 bound_to 6896
  145.4870  140.9554  143.1833 H   0  0  0  0  0  0  0  0  0  0  0  0  # atno 7974 bound_to 7965
  156.0299  140.1280  157.0269 H   0  0  0  0  0  0  0  0  0  0  0  0  # atno 8008 bound_to 7997
  154.4345  140.1051  156.6155 H   0  0  0  0  0  0  0  0  0  0  0  0  # atno 8009 bound_to 7997
  155.5822  140.3468  155.4545 H   0  0  0  0  0  0  0  0  0  0  0  0  # atno 8010 bound_to 7997
  140.7286  143.4260  151.0875 H   0  0  0  0  0  0  0  0  0  0  0  0  # atno 10167 bound_to 10162
  156.4059  130.7957  151.2171 H   0  0  0  0  0  0  0  0  0  0  0  0  # atno 10718 bound_to 10713
  153.6607  135.3347  155.3126 H   0  0  0  0  0  0  0  0  0  0  0  0  # atno 10763 bound_to 10752
  154.8515  135.4363  154.1808 H   0  0  0  0  0  0  0  0  0  0  0  0  # atno 10764 bound_to 10752
  153.2774  135.7006  153.7495 H   0  0  0  0  0  0  0  0  0  0  0  0  # atno 10765 bound_to 10752
  140.5503  134.5435  157.5121 H   0  0  0  0  0  0  0  0  0  0  0  0  # atno 11005 bound_to 11000
  144.7855  139.6435  143.7136 LP  0  0  0  0  0  0  0  0  0  0  0  0  # atno 17320 bound_to 7965
  146.2307  139.5807  142.9557 LP  0  0  0  0  0  0  0  0  0  0  0  0  # atno 17321 bound_to 7965
  139.7912  143.8216  152.3152 LP  0  0  0  0  0  0  0  0  0  0  0  0  # atno 17342 bound_to 10162
  139.8200  144.7299  150.9584 LP  0  0  0  0  0  0  0  0  0  0  0  0  # atno 17343 bound_to 10162
  157.7505  131.0272  150.3996 LP  0  0  0  0  0  0  0  0  0  0  0  0  # atno 17370 bound_to 10713
  156.4285  130.3967  149.6776 LP  0  0  0  0  0  0  0  0  0  0  0  0  # atno 17371 bound_to 10713
  139.9458  134.7704  156.0565 LP  0  0  0  0  0  0  0  0  0  0  0  0  # atno 17394 bound_to 11000
  141.1175  133.6623  156.3131 LP  0  0  0  0  0  0  0  0  0  0  0  0  # atno 17395 bound_to 11000

$$$$
