#       Name:                AV-unprocessed.smi:290
#       Creating user name   scv26
#       Creation time:       Thu Mar 26 22:06:29 2020


#       File generated by GOLD software.
#

@<TRIPOS>MOLECULE
AV-unprocessed.smi:290
    69    72     1
SMALL
NO_CHARGES


@<TRIPOS>ATOM
      1 ****        -2.7201  -2.9688   3.5956 C.3            1 S1                 0.0000
      2 ****        -3.6267  -3.5669   2.5075 C.3            1 S1                 0.0000
      3 ****        -4.6242  -4.3929   3.0917 O.3            1 S1                 0.0000
      4 ****        -5.6493  -4.5548   2.1284 C.3            1 S1                 0.0000
      5 ****        -5.8206  -3.1416   1.5868 C.3            1 S1                 0.0000
      6 ****        -4.4013  -2.5672   1.6066 C.3            1 S1                 0.0000
      7 ****        -4.4572  -1.2719   2.1808 O.3            1 S1                 0.0000
      8 ****        -3.8061  -2.4465   0.1817 C.3            1 S1                 0.0000
      9 ****        -2.4406  -1.9441   0.1619 N.pl3          1 S1                 0.0000
     10 ****        -1.2836  -2.6917   0.1747 C.2            1 S1                 0.0000
     11 ****        -0.1740  -2.0043   0.1575 N.2            1 S1                 0.0000
     12 ****        -0.6003  -0.6836   0.1190 C.ar           1 S1                 0.0000
     13 ****         0.0699   0.5659   0.0784 C.ar           1 S1                 0.0000
     14 ****         1.4201   0.6456   0.0666 N.3            1 S1                 0.0000
     15 ****         1.9950   1.3457   1.1996 C.3            1 S1                 0.0000
     16 ****         3.4340   1.6616   0.7948 C.3            1 S1                 0.0000
     17 ****         3.4890   1.5041  -0.7398 C.3            1 S1                 0.0000
     18 ****         4.1409   2.6873  -1.3857 N.4            1 S1                 1.0000
     19 ****         5.5962   2.7239  -1.0851 C.3            1 S1                 0.0000
     20 ****         3.8595   2.8597  -2.8400 C.3            1 S1                 0.0000
     21 ****         4.3525   4.2008  -3.4161 C.3            1 S1                 0.0000
     22 ****         3.6928   5.2784  -2.7847 O.3            1 S1                 0.0000
     23 ****         2.0158   1.2274  -1.1299 C.3            1 S1                 0.0000
     24 ****         1.8500   0.2685  -2.3297 C.3            1 S1                 0.0000
     25 ****        -0.6870   1.6942   0.0316 N.ar           1 S1                 0.0000
     26 ****        -2.0208   1.6018   0.0305 C.ar           1 S1                 0.0000
     27 ****        -2.7820   0.5056   0.0672 N.ar           1 S1                 0.0000
     28 ****        -2.0214  -0.6261   0.1129 C.ar           1 S1                 0.0000
     29 ****         4.0751   0.6132  -0.9738 H              1 S1                 0.0000
     30 ****         1.5110   2.1724  -1.3365 H              1 S1                 0.0000
     31 ****        -1.9607  -2.3180   3.1612 H              1 S1                 0.0000
     32 ****        -2.2054  -3.7569   4.1451 H              1 S1                 0.0000
     33 ****        -3.2923  -2.3858   4.3178 H              1 S1                 0.0000
     34 ****        -3.0250  -4.2266   1.8810 H              1 S1                 0.0000
     35 ****        -5.3178  -5.2388   1.3452 H              1 S1                 0.0000
     36 ****        -6.5627  -4.9510   2.5722 H              1 S1                 0.0000
     37 ****        -6.2845  -3.1278   0.5998 H              1 S1                 0.0000
     38 ****        -6.4759  -2.5876   2.2612 H              1 S1                 0.0000
     39 ****        -4.9512  -0.7084   1.6050 H              1 S1                 0.0000
     40 ****        -3.8173  -3.4187  -0.3131 H              1 S1                 0.0000
     41 ****        -4.4213  -1.7871  -0.4323 H              1 S1                 0.0000
     42 ****        -1.2867  -3.7717   0.2024 H              1 S1                 0.0000
     43 ****         1.4529   2.2706   1.4029 H              1 S1                 0.0000
     44 ****         1.9589   0.7301   2.0991 H              1 S1                 0.0000
     45 ****         3.7010   2.6644   1.1315 H              1 S1                 0.0000
     46 ****         4.1272   0.9638   1.2662 H              1 S1                 0.0000
     47 ****         6.1306   1.9630  -1.6553 H              1 S1                 0.0000
     48 ****         5.7972   2.5473  -0.0289 H              1 S1                 0.0000
     49 ****         6.0301   3.6954  -1.3162 H              1 S1                 0.0000
     50 ****         4.3073   2.0327  -3.3929 H              1 S1                 0.0000
     51 ****         2.7881   2.8241  -3.0270 H              1 S1                 0.0000
     52 ****         5.4315   4.3211  -3.3305 H              1 S1                 0.0000
     53 ****         4.1271   4.2460  -4.4819 H              1 S1                 0.0000
     54 ****         2.7742   5.2441  -3.0057 H              1 S1                 0.0000
     55 ****         2.3310   0.6352  -3.2340 H              1 S1                 0.0000
     56 ****         0.7975   0.1164  -2.5705 H              1 S1                 0.0000
     57 ****         2.2787  -0.7101  -2.1111 H              1 S1                 0.0000
     58 ****        -2.5549   2.5398  -0.0051 H              1 S1                 0.0000
     59 ****         3.7347   3.4969  -0.9379 H              1 S1                 0.0000
     60 ****        -4.9917  -3.9574   3.9135 LP             1 S1                 0.0000
     61 ****        -4.2354  -5.2825   3.3313 LP             1 S1                 0.0000
     62 ****        -3.5308  -0.9120   2.2913 LP             1 S1                 0.0000
     63 ****        -4.9056  -1.3180   3.0734 LP             1 S1                 0.0000
     64 ****         0.7647  -2.3488   0.1693 LP             1 S1                 0.0000
     65 ****         1.6486  -0.3272   0.1033 LP             1 S1                 0.0000
     66 ****         4.0827   6.1432  -3.1011 LP             1 S1                 0.0000
     67 ****         3.8031   5.2059  -1.7935 LP             1 S1                 0.0000
     68 ****        -0.2470   2.5916  -0.0020 LP             1 S1                 0.0000
     69 ****        -3.7819   0.5131   0.0619 LP             1 S1                 0.0000
@<TRIPOS>BOND
    1    1    2 1     
    2    1   31 1     
    3    1   32 1     
    4    1   33 1     
    5    2    6 1     
    6    2    3 1     
    7    2   34 1     
    8    3    4 1     
    9    4    5 1     
   10    4   35 1     
   11    4   36 1     
   12    5    6 1     
   13    5   37 1     
   14    5   38 1     
   15    6    7 1     
   16    6    8 1     
   17    7   39 1     
   18    8    9 1     
   19    8   40 1     
   20    8   41 1     
   21    9   28 1     
   22    9   10 1     
   23   10   11 2     
   24   10   42 1     
   25   11   12 1     
   26   12   28 ar    
   27   12   13 ar    
   28   13   14 1     
   29   13   25 ar    
   30   14   23 1     
   31   14   15 1     
   32   15   16 1     
   33   15   43 1     
   34   15   44 1     
   35   16   17 1     
   36   16   45 1     
   37   16   46 1     
   38   17   29 1     
   39   17   18 1     
   40   17   23 1     
   41   18   19 1     
   42   18   20 1     
   43   18   59 1     
   44   19   47 1     
   45   19   48 1     
   46   19   49 1     
   47   20   21 1     
   48   20   50 1     
   49   20   51 1     
   50   21   22 1     
   51   21   52 1     
   52   21   53 1     
   53   22   54 1     
   54   23   30 1     
   55   23   24 1     
   56   24   55 1     
   57   24   56 1     
   58   24   57 1     
   59   25   26 ar    
   60   26   27 ar    
   61   26   58 1     
   62   27   28 ar    
   63    3   60 1     
   64    3   61 1     
   65    7   62 1     
   66    7   63 1     
   67   11   64 1     
   68   14   65 1     
   69   22   66 1     
   70   22   67 1     
   71   25   68 1     
   72   27   69 1     
@<TRIPOS>SUBSTRUCTURE
      1 S1             1
@<TRIPOS>SET
LONE_PAIRS      STATIC     ATOMS    <user>   **** ""
10 60 61 62 63 64 65 66 67 68 69
DONOR_HYDROGENS      STATIC     ATOMS    <user>   **** ""
3 39 59 54
ATOM$BLUE        STATIC     ATOMS    COLORGROUP SYSTEM
10 60 61 62 63 64 65 66 67 68 69
ATOM$RED        STATIC     ATOMS    COLORGROUP SYSTEM
3 39 59 54
