#       Name:                AV-unprocessed.smi:193
#       Creating user name   scv26
#       Creation time:       Thu Mar 26 19:34:10 2020


#       File generated by GOLD software.
#

@<TRIPOS>MOLECULE
AV-unprocessed.smi:193
    69    73     1
SMALL
NO_CHARGES


@<TRIPOS>ATOM
      1 ****        -2.8491  -3.2002   1.6807 C.3            1 S1                 0.0000
      2 ****        -2.8692  -1.9406   0.7993 C.3            1 S1                 0.0000
      3 ****        -1.4829  -1.2628   0.8448 C.3            1 S1                 0.0000
      4 ****        -1.2031  -0.3708  -0.2825 N.pl3          1 S1                 0.0000
      5 ****         0.0310  -0.4328  -0.8500 C.ar           1 S1                 0.0000
      6 ****         0.1368  -0.3592  -2.2038 N.ar           1 S1                 0.0000
      7 ****         1.3328  -0.4272  -2.7955 C.ar           1 S1                 0.0000
      8 ****         2.5344  -0.5631  -2.2333 N.ar           1 S1                 0.0000
      9 ****         2.4399  -0.6286  -0.8748 C.ar           1 S1                 0.0000
     10 ****         1.2410  -0.5716  -0.1081 C.ar           1 S1                 0.0000
     11 ****         1.5472  -0.6553   1.2461 N.2            1 S1                 0.0000
     12 ****         2.8470  -0.7674   1.2762 C.2            1 S1                 0.0000
     13 ****         3.4645  -0.7547   0.0466 N.pl3          1 S1                 0.0000
     14 ****         4.8923  -0.8590  -0.2134 C.3            1 S1                 0.0000
     15 ****         5.6509   0.4864  -0.1004 C.3            1 S1                 0.0000
     16 ****         5.5818   0.9050   1.2520 O.3            1 S1                 0.0000
     17 ****         7.1341   0.2997  -0.4775 C.3            1 S1                 0.0000
     18 ****         7.8906   1.6384  -0.5421 C.3            1 S1                 0.0000
     19 ****         7.2354   2.5258  -1.4401 O.3            1 S1                 0.0000
     20 ****         5.9169   2.8574  -1.0222 C.3            1 S1                 0.0000
     21 ****         5.0389   1.5938  -0.9864 C.3            1 S1                 0.0000
     22 ****        -2.2551   0.3706  -0.9783 C.3            1 S1                 0.0000
     23 ****        -3.2936   0.9860  -0.0315 C.3            1 S1                 0.0000
     24 ****        -4.3805   0.0273   0.2761 N.4            1 S1                 1.0000
     25 ****        -5.6285   0.7205   0.6684 C.3            1 S1                 0.0000
     26 ****        -6.4576   1.1842  -0.5074 C.3            1 S1                 0.0000
     27 ****        -6.8888  -0.0274   0.2906 C.3            1 S1                 0.0000
     28 ****        -8.1167   0.0373   1.1722 C.3            1 S1                 0.0000
     29 ****        -3.9959  -0.9979   1.2763 C.3            1 S1                 0.0000
     30 ****        -2.6406  -2.9528   2.7222 H              1 S1                 0.0000
     31 ****        -2.0856  -3.9039   1.3469 H              1 S1                 0.0000
     32 ****        -3.8055  -3.7231   1.6477 H              1 S1                 0.0000
     33 ****        -3.0789  -2.2744  -0.2181 H              1 S1                 0.0000
     34 ****        -1.3548  -0.7139   1.7784 H              1 S1                 0.0000
     35 ****        -0.7311  -2.0531   0.8520 H              1 S1                 0.0000
     36 ****         1.3263  -0.3640  -3.8738 H              1 S1                 0.0000
     37 ****         3.3964  -0.8559   2.2024 H              1 S1                 0.0000
     38 ****         5.3126  -1.5918   0.4769 H              1 S1                 0.0000
     39 ****         5.0229  -1.2771  -1.2123 H              1 S1                 0.0000
     40 ****         6.0507   1.7209   1.3377 H              1 S1                 0.0000
     41 ****         7.6262  -0.3754   0.2238 H              1 S1                 0.0000
     42 ****         7.1991  -0.1779  -1.4560 H              1 S1                 0.0000
     43 ****         7.9703   2.0946   0.4456 H              1 S1                 0.0000
     44 ****         8.9085   1.4729  -0.8951 H              1 S1                 0.0000
     45 ****         5.9445   3.3452  -0.0467 H              1 S1                 0.0000
     46 ****         5.4992   3.5805  -1.7229 H              1 S1                 0.0000
     47 ****         4.9304   1.2190  -2.0048 H              1 S1                 0.0000
     48 ****         4.0357   1.8555  -0.6479 H              1 S1                 0.0000
     49 ****        -1.7918   1.1926  -1.5259 H              1 S1                 0.0000
     50 ****        -2.7324  -0.2656  -1.7247 H              1 S1                 0.0000
     51 ****        -2.8386   1.3844   0.8768 H              1 S1                 0.0000
     52 ****        -3.7322   1.8401  -0.5494 H              1 S1                 0.0000
     53 ****        -5.5852   1.3137   1.5804 H              1 S1                 0.0000
     54 ****        -7.0328   2.0997  -0.3839 H              1 S1                 0.0000
     55 ****        -6.0722   1.0120  -1.5108 H              1 S1                 0.0000
     56 ****        -6.7593  -0.9897  -0.2025 H              1 S1                 0.0000
     57 ****        -8.2063   1.0180   1.6408 H              1 S1                 0.0000
     58 ****        -8.0545  -0.7179   1.9562 H              1 S1                 0.0000
     59 ****        -9.0133  -0.1484   0.5803 H              1 S1                 0.0000
     60 ****        -4.8829  -1.5976   1.4857 H              1 S1                 0.0000
     61 ****        -3.7268  -0.5187   2.2189 H              1 S1                 0.0000
     62 ****        -4.5905  -0.4607  -0.5829 H              1 S1                 0.0000
     63 ****        -0.6870  -0.2534  -2.7607 LP             1 S1                 0.0000
     64 ****         3.3937  -0.6108  -2.7424 LP             1 S1                 0.0000
     65 ****         0.9150  -0.6344   2.0207 LP             1 S1                 0.0000
     66 ****         5.9988   0.2128   1.8411 LP             1 S1                 0.0000
     67 ****         4.6262   1.0357   1.5163 LP             1 S1                 0.0000
     68 ****         7.1859   2.0915  -2.3395 LP             1 S1                 0.0000
     69 ****         7.7712   3.3676  -1.5054 LP             1 S1                 0.0000
@<TRIPOS>BOND
    1    1    2 1     
    2    1   30 1     
    3    1   31 1     
    4    1   32 1     
    5    2   29 1     
    6    2    3 1     
    7    2   33 1     
    8    3    4 1     
    9    3   34 1     
   10    3   35 1     
   11    4    5 1     
   12    4   22 1     
   13    5   10 ar    
   14    5    6 ar    
   15    6    7 ar    
   16    7    8 ar    
   17    7   36 1     
   18    8    9 ar    
   19    9   13 1     
   20    9   10 ar    
   21   10   11 1     
   22   11   12 2     
   23   12   13 1     
   24   12   37 1     
   25   13   14 1     
   26   14   15 1     
   27   14   38 1     
   28   14   39 1     
   29   15   21 1     
   30   15   16 1     
   31   15   17 1     
   32   16   40 1     
   33   17   18 1     
   34   17   41 1     
   35   17   42 1     
   36   18   19 1     
   37   18   43 1     
   38   18   44 1     
   39   19   20 1     
   40   20   21 1     
   41   20   45 1     
   42   20   46 1     
   43   21   47 1     
   44   21   48 1     
   45   22   23 1     
   46   22   49 1     
   47   22   50 1     
   48   23   24 1     
   49   23   51 1     
   50   23   52 1     
   51   24   25 1     
   52   24   29 1     
   53   24   62 1     
   54   25   27 1     
   55   25   26 1     
   56   25   53 1     
   57   26   27 1     
   58   26   54 1     
   59   26   55 1     
   60   27   28 1     
   61   27   56 1     
   62   28   57 1     
   63   28   58 1     
   64   28   59 1     
   65   29   60 1     
   66   29   61 1     
   67    6   63 1     
   68    8   64 1     
   69   11   65 1     
   70   16   66 1     
   71   16   67 1     
   72   19   68 1     
   73   19   69 1     
@<TRIPOS>SUBSTRUCTURE
      1 S1             1
@<TRIPOS>SET
LONE_PAIRS      STATIC     ATOMS    <user>   **** ""
7 63 64 65 66 67 68 69
DONOR_HYDROGENS      STATIC     ATOMS    <user>   **** ""
2 40 62
ATOM$BLUE        STATIC     ATOMS    COLORGROUP SYSTEM
7 63 64 65 66 67 68 69
ATOM$RED        STATIC     ATOMS    COLORGROUP SYSTEM
2 40 62
