AV-unprocessed.smi:576|AV-procd|sdf|2979|dock4
  -GOLD-   2262023493D 1   1.00000     0.00000
 Structure written by MMmdl.
 35 36  0  0  0  0  0  0  0  0  1 V2000
  147.1233  140.4485  153.2769 C   0  0  0  0  0  0  0  0  0  0  0  0
  147.3863  140.8544  154.7338 C   0  0  1  0  0  0  0  0  0  0  0  0
  148.8282  140.9312  154.9439 N   0  0  0  0  0  0  0  0  0  0  0  0
  149.4312  141.2234  156.1064 C   0  0  0  0  0  0  0  0  0  0  0  0
  148.8170  141.4345  157.1531 O   0  0  0  0  0  0  0  0  0  0  0  0
  150.9655  141.2631  156.0767 C   0  0  0  0  0  0  0  0  0  0  0  0
  151.5640  141.4775  157.4050 N   0  0  0  0  0  0  0  0  0  0  0  0
  151.2242  142.6669  158.0794 C   0  0  0  0  0  0  0  0  0  0  0  0
  151.7179  142.9896  159.2903 C   0  0  0  0  0  0  0  0  0  0  0  0
  151.2926  144.2577  160.0142 C   0  0  0  0  0  0  0  0  0  0  0  0
  151.8188  144.3129  161.2379 F   0  0  0  0  0  0  0  0  0  0  0  0
  151.7057  145.3270  159.3355 F   0  0  0  0  0  0  0  0  0  0  0  0
  149.9655  144.3247  160.1260 F   0  0  0  0  0  0  0  0  0  0  0  0
  152.6087  142.0232  159.9025 C   0  0  0  0  0  0  0  0  0  0  0  0
  152.9391  140.8779  159.2739 C   0  0  0  0  0  0  0  0  0  0  0  0
  152.4136  140.5531  157.9458 C   0  0  0  0  0  0  0  0  0  0  0  0
  152.7165  139.5149  157.3571 O   0  0  0  0  0  0  0  0  0  0  0  0
  146.6578  142.1433  155.0766 C   0  0  0  0  0  0  0  0  0  0  0  0
  145.1516  142.2402  155.0084 C   0  0  0  0  0  0  0  0  0  0  0  0
  146.0034  142.9757  153.9994 C   0  0  0  0  0  0  0  0  0  0  0  0
  146.0559  140.3271  153.0899 H   0  0  0  0  0  0  0  0  0  0  0  0
  147.6069  139.5007  153.0378 H   0  0  0  0  0  0  0  0  0  0  0  0
  147.4984  141.2001  152.5812 H   0  0  0  0  0  0  0  0  0  0  0  0
  146.9855  140.0609  155.3679 H   0  0  0  0  0  0  0  0  0  0  0  0
  149.4131  140.7651  154.1376 H   0  0  0  0  0  0  0  0  0  0  0  0
  151.3195  140.3281  155.6406 H   0  0  0  0  0  0  0  0  0  0  0  0
  151.2979  142.0423  155.3879 H   0  0  0  0  0  0  0  0  0  0  0  0
  150.5374  143.3067  157.5446 H   0  0  0  0  0  0  0  0  0  0  0  0
  153.0227  142.2222  160.8799 H   0  0  0  0  0  0  0  0  0  0  0  0
  153.6077  140.1817  159.7587 H   0  0  0  0  0  0  0  0  0  0  0  0
  147.1320  142.7085  155.8773 H   0  0  0  0  0  0  0  0  0  0  0  0
  144.5997  141.3707  154.6569 H   0  0  0  0  0  0  0  0  0  0  0  0
  144.6527  142.8304  155.7744 H   0  0  0  0  0  0  0  0  0  0  0  0
  146.0715  144.0579  154.0908 H   0  0  0  0  0  0  0  0  0  0  0  0
  146.0177  142.5913  152.9814 H   0  0  0  0  0  0  0  0  0  0  0  0
  1  2  1  0  0  0  0
  1 21  1  0  0  0  0
  1 22  1  0  0  0  0
  1 23  1  0  0  0  0
  2  3  1  0  0  0  0
  2 18  1  0  0  0  0
  2 24  1  0  0  0  0
  3  4  1  0  0  0  0
  3 25  1  0  0  0  0
  4  5  2  0  0  0  0
  4  6  1  0  0  0  0
  6  7  1  0  0  0  0
  6 26  1  0  0  0  0
  6 27  1  0  0  0  0
  7 16  1  0  0  0  0
  7  8  1  0  0  0  0
  8  9  2  0  0  0  0
  8 28  1  0  0  0  0
  9 10  1  0  0  0  0
  9 14  1  0  0  0  0
 10 11  1  0  0  0  0
 10 12  1  0  0  0  0
 10 13  1  0  0  0  0
 14 15  2  0  0  0  0
 14 29  1  0  0  0  0
 15 16  1  0  0  0  0
 15 30  1  0  0  0  0
 16 17  2  0  0  0  0
 18 20  1  0  0  0  0
 18 19  1  0  0  0  0
 18 31  1  0  0  0  0
 19 20  1  0  0  0  0
 19 32  1  0  0  0  0
 19 33  1  0  0  0  0
 20 34  1  0  0  0  0
 20 35  1  0  0  0  0
M  END
> <s_m_source_file>
AV-unprocessed.smi

> <i_m_source_file_index>
576

> <i_lp_mmshare_version>
43012

> <i_f3d_flags>
0

> <s_epik_input>
W0NIMl0xW0NIMl1bQ0hdMVtDQEhdKFtDSDNdKVtOSF1DKD1PKVtDSDJdbjJbY0hdYyhDKEYpKEYpRilbY0hdW2NIXWMyPU8=

> <s_epik_cmdline>
J2VwaWtfcHl0aG9uJywgJy1waCcsICc3LjAnLCAnLXRuJywgJzgnLCAnLW1hJywgJzIwMCcsICctbWV0YWxfYmluZGluZycsICctaW1hZScsICc8aW5maWxlLm1hZT4nLCAnLW9tYWUnLCAnPG91dGZpbGUubWFlPic=

> <r_lp_tautomer_probability>
1

> <r_epik_Ionization_Penalty>
3.84201e-08

> <r_epik_Ionization_Penalty_Charging>
1.91184e-08

> <r_epik_Ionization_Penalty_Neutral>
1.93017e-08

> <r_epik_State_Penalty>
-0

> <r_epik_Charging_Adjusted_Penalty>
1.91184e-08

> <i_epik_Tot_Q>
0

> <i_epik_Tot_abs_Q>
0

> <r_epik_Metal_State_Penalty>
-0

> <b_epik_Metal_Only>
0

> <s_lp_Force_Field>
OPLS_2005

> <r_lp_Energy>
24.3329

> <b_lp_Chiralities_Consistent>
1

> <s_lp_Variant>
AV-unprocessed.smi:576-2

> <Gold.Version>
5.8.1

> <Gold.Id.Protein>
6NUR|6NUR_protein|mol2

> <Gold.PLP.Fitness>
49.4007

> <Gold.PLP.PLP>
-45.3244

> <Gold.PLP.part.hbond>
-1.0000

> <Gold.PLP.part.metal>
0.0000

> <Gold.PLP.part.buried>
-4.5482

> <Gold.PLP.part.nonpolar>
-39.4108

> <Gold.PLP.part.repulsive>
0.2533

> <Gold.PLP.ligand.clash>
0.0000

> <Gold.PLP.ligand.torsion>
0.7875

> <Gold.PLP.Chemscore.Hbond>
0.9500

> <Gold.PLP.Chemscore.CHOScore>
0.5592

> <Gold.PLP.Chemscore.Metal>
0.0000

> <Gold.Chemscore.Hbonds>
donor molecule, donor type, donor heavy atom, donor atom, acceptor molecule, acceptor atom, score
      P1  H  7997  8009       L1    17  0.85
      L1  C     8    28       P1  8028  0.17

> <Gold.PLP.Chemscore.Internal.Correction>
1.1237

> <Gold.Rescore>
     Score         DG    S(hbond)    S(metal)    S(lipo)     H(rot)  DE(clash)    DE(int)     intcor
     11.27     -14.18       0.96        0.00      85.66       1.77       0.81       2.10       ----

> <Gold.Chemscore.Fitness>
11.2661

> <Gold.Chemscore.DG>
-14.1793

> <Gold.Chemscore.ZeroCoef>
-5.4800

> <Gold.Chemscore.Hbond>
0.9569

> <Gold.Chemscore.Metal>
0.0000

> <Gold.Chemscore.Lipo>
85.6617

> <Gold.Chemscore.Internal_Hbond>
0.0000

> <Gold.Chemscore.DEClash>
0.8096

> <Gold.Chemscore.DEInternal>
2.1036

> <Gold.Chemscore.Rot>
1.7653

> <Gold.Chemscore.Internal.Correction>
   9.000000E+99

> <Gold.Chemscore.Hbonds>
donor molecule, donor type, donor heavy atom, donor atom, acceptor molecule, acceptor atom, score
      P1  H  7997  8009       L1    17  0.15

> <Gold.Chemscore.Hbond.Weighted>
-3.1960

> <Gold.Chemscore.Metal.Weighted>
-0.0000

> <Gold.Chemscore.Lipo.Weighted>
-10.0224

> <Gold.Chemscore.Internal_Hbond.Weighted>
0.0000

> <Gold.Chemscore.DEClash.Weighted>
0.8096

> <Gold.Chemscore.DEInternal.Weighted>
2.1036

> <Gold.Chemscore.Rot.Weighted>
4.5191

> <Gold.Chemscore.Internal.Correction.Weighted>
   9.000000E+99

> <Gold.Protein.RotatedTorsions>
[ 6907 6896 6895 6894 ] final  -72.10 input  -60.11 | X-H torsion
[ 7974 7965 7964 7962 ] final -149.51 input  175.53 | X-H torsion
[ 8008 7997 7996 7995 ] final  170.04 input   59.86 | X-H torsion
[ 10167 10162 10161 10158 ] final -173.81 input  -65.29 | X-H torsion
[ 10718 10713 10712 10709 ] final  119.53 input   66.30 | X-H torsion
[ 10763 10752 10751 10750 ] final   31.42 input  -60.55 | X-H torsion
[ 11005 11000 10999 10996 ] final -112.53 input  -57.11 | X-H torsion

> <Gold.Protein.ActiveResidues>
 VAL166  LYS551  ARG553  GLY616  TRP617  ASP618  TYR619  PRO620  LYS621  CYS622 
 ASP623  PHE694  ASN695  SER759  ASP760  ASP761  ALA762  ILE779  LEU786  VAL792 
 PHE793  MET794  SER795  GLU796  ALA797  LYS798  CYS799  TRP800  GLU811  SER814 

> <Gold.Protein.RotatedAtoms>
  150.7184  134.5212  159.5654 H   0  0  0  0  0  0  0  0  0  0  0  0  # atno 6907 bound_to 6896
  152.2766  134.7871  160.0413 H   0  0  0  0  0  0  0  0  0  0  0  0  # atno 6908 bound_to 6896
  151.8532  133.3408  159.3717 H   0  0  0  0  0  0  0  0  0  0  0  0  # atno 6909 bound_to 6896
  144.7963  140.5056  143.5738 H   0  0  0  0  0  0  0  0  0  0  0  0  # atno 7974 bound_to 7965
  156.1402  140.1548  156.8932 H   0  0  0  0  0  0  0  0  0  0  0  0  # atno 8008 bound_to 7997
  154.4981  140.0832  156.7779 H   0  0  0  0  0  0  0  0  0  0  0  0  # atno 8009 bound_to 7997
  155.4092  140.3418  155.4264 H   0  0  0  0  0  0  0  0  0  0  0  0  # atno 8010 bound_to 7997
  139.5668  144.1737  152.1324 H   0  0  0  0  0  0  0  0  0  0  0  0  # atno 10167 bound_to 10162
  157.5955  131.1058  150.7909 H   0  0  0  0  0  0  0  0  0  0  0  0  # atno 10718 bound_to 10713
  153.0317  135.6439  154.1196 H   0  0  0  0  0  0  0  0  0  0  0  0  # atno 10763 bound_to 10752
  154.0917  135.2866  155.3271 H   0  0  0  0  0  0  0  0  0  0  0  0  # atno 10764 bound_to 10752
  154.6460  135.5443  153.7908 H   0  0  0  0  0  0  0  0  0  0  0  0  # atno 10765 bound_to 10752
  141.0669  133.9443  157.2560 H   0  0  0  0  0  0  0  0  0  0  0  0  # atno 11005 bound_to 11000
  145.5664  139.1481  143.3312 LP  0  0  0  0  0  0  0  0  0  0  0  0  # atno 17320 bound_to 7965
  146.2232  140.5799  142.9008 LP  0  0  0  0  0  0  0  0  0  0  0  0  # atno 17321 bound_to 7965
  140.1261  144.5330  150.6832 LP  0  0  0  0  0  0  0  0  0  0  0  0  # atno 17342 bound_to 10162
  140.6951  143.2399  151.5022 LP  0  0  0  0  0  0  0  0  0  0  0  0  # atno 17343 bound_to 10162
  156.8321  130.5019  149.5330 LP  0  0  0  0  0  0  0  0  0  0  0  0  # atno 17370 bound_to 10713
  156.1017  130.5974  150.9904 LP  0  0  0  0  0  0  0  0  0  0  0  0  # atno 17371 bound_to 10713
  139.9485  135.0180  156.8925 LP  0  0  0  0  0  0  0  0  0  0  0  0  # atno 17394 bound_to 11000
  140.5754  134.0403  155.7445 LP  0  0  0  0  0  0  0  0  0  0  0  0  # atno 17395 bound_to 11000

$$$$
