#       Name:                AV-unprocessed.smi:3290
#       Creating user name   scv26
#       Creation time:       Fri Mar 27 18:54:56 2020


#       File generated by GOLD software.
#

@<TRIPOS>MOLECULE
AV-unprocessed.smi:3290
    46    47     1
SMALL
NO_CHARGES


@<TRIPOS>ATOM
      1 ****        -2.1664   0.1356   2.0262 C.3            1 S1                 0.0000
      2 ****        -2.7192   1.0801   0.9461 C.3            1 S1                 0.0000
      3 ****        -2.3561   2.5509   1.2409 C.3            1 S1                 0.0000
      4 ****        -3.0008   3.5079   0.2263 C.3            1 S1                 0.0000
      5 ****        -2.6549   3.1143  -1.2166 C.3            1 S1                 0.0000
      6 ****        -3.0322   1.6498  -1.4962 C.3            1 S1                 0.0000
      7 ****        -2.3565   0.6701  -0.5112 C.3            1 S1                 0.0000
      8 ****        -0.8403   0.5510  -0.8034 C.3            1 S1                 0.0000
      9 ****        -0.2710  -0.7108  -0.2899 N.4            1 S1                 1.0000
     10 ****         1.1869  -0.8404  -0.4847 C.3            1 S1                 0.0000
     11 ****         1.7129  -2.1734   0.0752 C.3            1 S1                 0.0000
     12 ****         1.1180  -3.2362  -0.6439 O.3            1 S1                 0.0000
     13 ****         3.2310  -2.2346   0.0162 C.ar           1 S1                 0.0000
     14 ****         3.9077  -2.4669  -1.2012 C.ar           1 S1                 0.0000
     15 ****         5.3164  -2.5061  -1.1923 C.ar           1 S1                 0.0000
     16 ****         6.0555  -2.3297  -0.0765 N.ar           1 S1                 0.0000
     17 ****         5.4037  -2.1058   1.0844 C.ar           1 S1                 0.0000
     18 ****         3.9991  -2.0478   1.1844 C.ar           1 S1                 0.0000
     19 ****        -1.0845   0.2225   2.1247 H              1 S1                 0.0000
     20 ****        -2.4067  -0.9042   1.8037 H              1 S1                 0.0000
     21 ****        -2.5974   0.3686   3.0005 H              1 S1                 0.0000
     22 ****        -3.8057   1.0083   1.0212 H              1 S1                 0.0000
     23 ****        -2.6869   2.8197   2.2449 H              1 S1                 0.0000
     24 ****        -1.2742   2.6834   1.2356 H              1 S1                 0.0000
     25 ****        -4.0839   3.4974   0.3553 H              1 S1                 0.0000
     26 ****        -2.6775   4.5308   0.4215 H              1 S1                 0.0000
     27 ****        -3.1784   3.7701  -1.9129 H              1 S1                 0.0000
     28 ****        -1.5901   3.2664  -1.3955 H              1 S1                 0.0000
     29 ****        -4.1155   1.5435  -1.4215 H              1 S1                 0.0000
     30 ****        -2.7801   1.3907  -2.5251 H              1 S1                 0.0000
     31 ****        -2.7991  -0.3088  -0.7031 H              1 S1                 0.0000
     32 ****        -0.6689   0.5650  -1.8805 H              1 S1                 0.0000
     33 ****        -0.2929   1.3991  -0.3928 H              1 S1                 0.0000
     34 ****        -0.4668  -0.7691   0.6992 H              1 S1                 0.0000
     35 ****         1.4258  -0.7498  -1.5455 H              1 S1                 0.0000
     36 ****         1.6768  -0.0099   0.0257 H              1 S1                 0.0000
     37 ****         1.4044  -2.2732   1.1171 H              1 S1                 0.0000
     38 ****         1.4157  -4.0529  -0.2716 H              1 S1                 0.0000
     39 ****         3.3645  -2.6113  -2.1238 H              1 S1                 0.0000
     40 ****         5.8639  -2.6815  -2.1065 H              1 S1                 0.0000
     41 ****         6.0196  -1.9665   1.9605 H              1 S1                 0.0000
     42 ****         3.5284  -1.8634   2.1389 H              1 S1                 0.0000
     43 ****        -0.7253  -1.4844  -0.7545 H              1 S1                 0.0000
     44 ****         1.3874  -3.1855  -1.6056 LP             1 S1                 0.0000
     45 ****         0.1224  -3.1760  -0.5731 LP             1 S1                 0.0000
     46 ****         7.0544  -2.3638  -0.1088 LP             1 S1                 0.0000
@<TRIPOS>BOND
    1    1    2 1     
    2    1   19 1     
    3    1   20 1     
    4    1   21 1     
    5    2    7 1     
    6    2    3 1     
    7    2   22 1     
    8    3    4 1     
    9    3   23 1     
   10    3   24 1     
   11    4    5 1     
   12    4   25 1     
   13    4   26 1     
   14    5    6 1     
   15    5   27 1     
   16    5   28 1     
   17    6    7 1     
   18    6   29 1     
   19    6   30 1     
   20    7    8 1     
   21    7   31 1     
   22    8    9 1     
   23    8   32 1     
   24    8   33 1     
   25    9   10 1     
   26    9   34 1     
   27    9   43 1     
   28   10   11 1     
   29   10   35 1     
   30   10   36 1     
   31   11   12 1     
   32   11   13 1     
   33   11   37 1     
   34   12   38 1     
   35   13   18 ar    
   36   13   14 ar    
   37   14   15 ar    
   38   14   39 1     
   39   15   16 ar    
   40   15   40 1     
   41   16   17 ar    
   42   17   18 ar    
   43   17   41 1     
   44   18   42 1     
   45   12   44 1     
   46   12   45 1     
   47   16   46 1     
@<TRIPOS>SUBSTRUCTURE
      1 S1             1
@<TRIPOS>SET
LONE_PAIRS      STATIC     ATOMS    <user>   **** ""
3 44 45 46
DONOR_HYDROGENS      STATIC     ATOMS    <user>   **** ""
3 34 43 38
ATOM$BLUE        STATIC     ATOMS    COLORGROUP SYSTEM
3 44 45 46
ATOM$RED        STATIC     ATOMS    COLORGROUP SYSTEM
3 34 43 38
