#       Name:                AV-unprocessed.smi:737
#       Creating user name   scv26
#       Creation time:       Fri Mar 27 00:52:56 2020


#       File generated by GOLD software.
#

@<TRIPOS>MOLECULE
AV-unprocessed.smi:737
    52    54     1
SMALL
NO_CHARGES


@<TRIPOS>ATOM
      1 ****        -2.1694   0.4542   3.2950 C.3            1 S1                 0.0000
      2 ****        -2.2212   0.4970   1.8425 N.pl3          1 S1                 0.0000
      3 ****        -3.4512   0.5285   1.1708 C.ar           1 S1                 0.0000
      4 ****        -4.6053   0.5506   1.8770 N.ar           1 S1                 0.0000
      5 ****        -5.7574   0.5752   1.1946 C.ar           1 S1                 0.0000
      6 ****        -5.9541   0.5796  -0.1331 N.ar           1 S1                 0.0000
      7 ****        -4.8172   0.5595  -0.8419 C.ar           1 S1                 0.0000
      8 ****        -4.7210   0.5572  -2.2230 N.2            1 S1                 0.0000
      9 ****        -3.4027   0.5359  -2.4025 C.2            1 S1                 0.0000
     10 ****        -2.6253   0.5225  -1.3021 N.pl3          1 S1                 0.0000
     11 ****        -1.1730   0.5013  -1.2726 C.3            1 S1                 0.0000
     12 ****        -0.6001  -0.9292  -1.3444 C.3            1 S1                 0.0000
     13 ****        -1.1176  -1.7617  -0.3253 O.3            1 S1                 0.0000
     14 ****         0.9345  -0.9760  -1.2924 C.3            1 S1                 0.0000
     15 ****         1.4003  -0.2002  -0.1966 O.3            1 S1                 0.0000
     16 ****         2.7659  -0.1560  -0.0907 C.ar           1 S1                 0.0000
     17 ****         3.4659  -1.1716   0.6040 C.ar           1 S1                 0.0000
     18 ****         2.7253  -2.3273   1.2521 C.3            1 S1                 0.0000
     19 ****         4.8712  -1.1099   0.7027 C.ar           1 S1                 0.0000
     20 ****         5.5765  -0.0376   0.1259 C.ar           1 S1                 0.0000
     21 ****         4.8795   0.9824  -0.5476 C.ar           1 S1                 0.0000
     22 ****         3.4745   0.9307  -0.6536 C.ar           1 S1                 0.0000
     23 ****         2.7332   2.0425  -1.3723 C.3            1 S1                 0.0000
     24 ****        -3.5244   0.5352  -0.2370 C.ar           1 S1                 0.0000
     25 ****        -1.1323   0.4233   3.6284 H              1 S1                 0.0000
     26 ****        -2.6764  -0.4334   3.6748 H              1 S1                 0.0000
     27 ****        -2.6397   1.3393   3.7247 H              1 S1                 0.0000
     28 ****        -1.3596   0.4405   1.3183 H              1 S1                 0.0000
     29 ****        -6.6533   0.5934   1.7971 H              1 S1                 0.0000
     30 ****        -2.9755   0.5298  -3.3949 H              1 S1                 0.0000
     31 ****        -0.8036   1.0900  -2.1134 H              1 S1                 0.0000
     32 ****        -0.8355   1.0178  -0.3750 H              1 S1                 0.0000
     33 ****        -0.9158  -1.3781  -2.2869 H              1 S1                 0.0000
     34 ****        -2.0603  -1.7683  -0.3918 H              1 S1                 0.0000
     35 ****         1.2860  -2.0066  -1.2272 H              1 S1                 0.0000
     36 ****         1.3375  -0.5628  -2.2184 H              1 S1                 0.0000
     37 ****         3.2836  -2.7180   2.1033 H              1 S1                 0.0000
     38 ****         2.5875  -3.1367   0.5356 H              1 S1                 0.0000
     39 ****         1.7450  -2.0155   1.6135 H              1 S1                 0.0000
     40 ****         5.4132  -1.8842   1.2257 H              1 S1                 0.0000
     41 ****         6.6528   0.0058   0.2059 H              1 S1                 0.0000
     42 ****         5.4281   1.8058  -0.9806 H              1 S1                 0.0000
     43 ****         3.3667   2.9205  -1.5010 H              1 S1                 0.0000
     44 ****         1.8512   2.3461  -0.8076 H              1 S1                 0.0000
     45 ****         2.4119   1.7065  -2.3580 H              1 S1                 0.0000
     46 ****        -4.5981   0.5487   2.8769 LP             1 S1                 0.0000
     47 ****        -6.8616   0.5963  -0.5529 LP             1 S1                 0.0000
     48 ****        -5.4508   0.5686  -2.9065 LP             1 S1                 0.0000
     49 ****        -0.8453  -1.4079   0.5695 LP             1 S1                 0.0000
     50 ****        -0.7652  -2.6908  -0.4378 LP             1 S1                 0.0000
     51 ****         1.0313  -0.5917   0.6463 LP             1 S1                 0.0000
     52 ****         1.0622   0.7346  -0.3059 LP             1 S1                 0.0000
@<TRIPOS>BOND
    1    1    2 1     
    2    1   25 1     
    3    1   26 1     
    4    1   27 1     
    5    2    3 1     
    6    2   28 1     
    7    3   24 ar    
    8    3    4 ar    
    9    4    5 ar    
   10    5    6 ar    
   11    5   29 1     
   12    6    7 ar    
   13    7   24 ar    
   14    7    8 1     
   15    8    9 2     
   16    9   10 1     
   17    9   30 1     
   18   10   11 1     
   19   10   24 1     
   20   11   12 1     
   21   11   31 1     
   22   11   32 1     
   23   12   13 1     
   24   12   14 1     
   25   12   33 1     
   26   13   34 1     
   27   14   15 1     
   28   14   35 1     
   29   14   36 1     
   30   15   16 1     
   31   16   22 ar    
   32   16   17 ar    
   33   17   18 1     
   34   17   19 ar    
   35   18   37 1     
   36   18   38 1     
   37   18   39 1     
   38   19   20 ar    
   39   19   40 1     
   40   20   21 ar    
   41   20   41 1     
   42   21   22 ar    
   43   21   42 1     
   44   22   23 1     
   45   23   43 1     
   46   23   44 1     
   47   23   45 1     
   48    4   46 1     
   49    6   47 1     
   50    8   48 1     
   51   13   49 1     
   52   13   50 1     
   53   15   51 1     
   54   15   52 1     
@<TRIPOS>SUBSTRUCTURE
      1 S1             1
@<TRIPOS>SET
LONE_PAIRS      STATIC     ATOMS    <user>   **** ""
7 46 47 48 49 50 51 52
DONOR_HYDROGENS      STATIC     ATOMS    <user>   **** ""
2 28 34
ATOM$BLUE        STATIC     ATOMS    COLORGROUP SYSTEM
7 46 47 48 49 50 51 52
ATOM$RED        STATIC     ATOMS    COLORGROUP SYSTEM
2 28 34
