AV-unprocessed.smi:1060|AV-procd|sdf|4659|dock4
  -GOLD-   22720 3173D 1   1.00000     0.00000
 Structure written by MMmdl.
 36 37  0  0  0  0  0  0  0  0  2 V2000
  148.8595  139.0652  158.2688 O   0  0  0  0  0  0  0  0  0  0  0  0
  150.0347  138.7022  158.2367 C   0  0  0  0  0  0  0  0  0  0  0  0
  150.3637  137.2266  158.4503 C   0  0  0  0  0  0  0  0  0  0  0  0
  149.6041  136.7407  159.5453 O   0  0  0  0  0  0  0  0  0  0  0  0
  148.3568  136.1996  159.1434 C   0  0  0  0  0  0  0  0  0  0  0  0
  147.4100  136.1666  160.3498 C   0  0  1  0  0  0  0  0  0  0  0  0
  147.2991  134.7934  161.0046 C   0  0  0  0  0  0  0  0  0  0  0  0
  146.7845  135.1323  162.3903 C   0  0  0  0  0  0  0  0  0  0  0  0
  147.2930  136.5581  162.6256 C   0  0  0  0  0  0  0  0  0  0  0  0
  147.9214  136.9579  161.4118 O   0  0  0  0  0  0  0  0  0  0  0  0
  151.0991  139.5091  158.0573 N   0  0  0  0  0  0  0  0  0  0  0  0
  151.1435  140.8989  157.8515 C   0  0  0  0  0  0  0  0  0  0  0  0
  151.2641  141.8282  158.8398 C   0  0  0  0  0  0  0  0  0  0  0  0
  151.3008  143.2592  158.5655 C   0  0  0  0  0  0  0  0  0  0  0  0
  151.3597  144.3224  159.6483 C   0  0  0  0  0  0  0  0  0  0  0  0
  152.2919  145.2356  159.3758 F   0  0  0  0  0  0  0  0  0  0  0  0
  150.1864  144.9433  159.7715 F   0  0  0  0  0  0  0  0  0  0  0  0
  151.6571  143.7612  160.8193 F   0  0  0  0  0  0  0  0  0  0  0  0
  151.1686  143.5383  157.2188 C   0  0  0  0  0  0  0  0  0  0  0  0
  151.0501  142.6825  156.1804 N   0  5  0  0  0  0  0  0  0  0  0  0
  151.0247  141.3461  156.4480 C   0  0  0  0  0  0  0  0  0  0  0  0
  150.9072  140.5119  155.5498 O   0  0  0  0  0  0  0  0  0  0  0  0
  150.1288  136.6705  157.5411 H   0  0  0  0  0  0  0  0  0  0  0  0
  151.4309  137.1086  158.6465 H   0  0  0  0  0  0  0  0  0  0  0  0
  147.9332  136.8330  158.3623 H   0  0  0  0  0  0  0  0  0  0  0  0
  148.4789  135.1990  158.7252 H   0  0  0  0  0  0  0  0  0  0  0  0
  146.4163  136.5227  160.0716 H   0  0  0  0  0  0  0  0  0  0  0  0
  146.6426  134.1135  160.4606 H   0  0  0  0  0  0  0  0  0  0  0  0
  148.2839  134.3294  161.0792 H   0  0  0  0  0  0  0  0  0  0  0  0
  145.6938  135.1186  162.4028 H   0  0  0  0  0  0  0  0  0  0  0  0
  147.1397  134.4300  163.1450 H   0  0  0  0  0  0  0  0  0  0  0  0
  146.4664  137.2316  162.8549 H   0  0  0  0  0  0  0  0  0  0  0  0
  148.0083  136.6071  163.4468 H   0  0  0  0  0  0  0  0  0  0  0  0
  152.0061  139.0699  158.1224 H   0  0  0  0  0  0  0  0  0  0  0  0
  151.3242  141.5316  159.8738 H   0  0  0  0  0  0  0  0  0  0  0  0
  151.1509  144.6118  156.9333 H   0  0  0  0  0  0  0  0  0  0  0  0
  1  2  2  0  0  0  0
  2  3  1  0  0  0  0
  2 11  1  0  0  0  0
  3  4  1  0  0  0  0
  3 23  1  0  0  0  0
  3 24  1  0  0  0  0
  4  5  1  0  0  0  0
  5  6  1  0  0  0  0
  5 25  1  0  0  0  0
  5 26  1  0  0  0  0
  6 10  1  0  0  0  0
  6  7  1  0  0  0  0
  6 27  1  0  0  0  0
  7  8  1  0  0  0  0
  7 28  1  0  0  0  0
  7 29  1  0  0  0  0
  8  9  1  0  0  0  0
  8 30  1  0  0  0  0
  8 31  1  0  0  0  0
  9 10  1  0  0  0  0
  9 32  1  0  0  0  0
  9 33  1  0  0  0  0
 11 12  1  0  0  0  0
 11 34  1  0  0  0  0
 12 21  1  0  0  0  0
 12 13  2  0  0  0  0
 13 14  1  0  0  0  0
 13 35  1  0  0  0  0
 14 15  1  0  0  0  0
 14 19  2  0  0  0  0
 15 16  1  0  0  0  0
 15 17  1  0  0  0  0
 15 18  1  0  0  0  0
 19 20  1  0  0  0  0
 19 36  1  0  0  0  0
 20 21  1  0  0  0  0
 21 22  2  0  0  0  0
M  CHG  1  20  -1
M  END
> <s_m_source_file>
AV-unprocessed.smi

> <i_m_source_file_index>
1060

> <i_lp_mmshare_version>
43012

> <i_f3d_flags>
0

> <s_epik_input>
Tz1jMVtuSF1bY0hdYyhDKEYpKEYpRilbY0hdYzFbTkhdQyg9TylbQ0gyXU9bQ0gyXVtDQEBIXTJbQ0gyXVtDSDJdW0NIMl1PMg==

> <s_epik_cmdline>
J2VwaWtfcHl0aG9uJywgJy1waCcsICc3LjAnLCAnLXRuJywgJzgnLCAnLW1hJywgJzIwMCcsICctbWV0YWxfYmluZGluZycsICctaW1hZScsICc8aW5maWxlLm1hZT4nLCAnLW9tYWUnLCAnPG91dGZpbGUubWFlPic=

> <r_epik_Ionization_Penalty>
2.50578

> <r_epik_Ionization_Penalty_Charging>
0.0523173

> <r_epik_Ionization_Penalty_Neutral>
2.45346

> <r_epik_State_Penalty>
2.61512

> <r_epik_Charging_Adjusted_Penalty>
2.66744

> <i_epik_Tot_Q>
-1

> <i_epik_Tot_abs_Q>
1

> <r_epik_Metal_State_Penalty>
0.513209

> <b_epik_Metal_Only>
0

> <s_lp_Force_Field>
OPLS_2005

> <r_lp_Energy>
36.6163

> <b_lp_Chiralities_Consistent>
1

> <s_lp_Variant>
AV-unprocessed.smi:1060-4

> <Gold.Version>
5.8.1

> <Gold.Id.Protein>
6NUR|6NUR_protein|mol2

> <Gold.PLP.Fitness>
47.2554

> <Gold.PLP.PLP>
-44.0429

> <Gold.PLP.part.hbond>
-3.5584

> <Gold.PLP.part.metal>
0.0000

> <Gold.PLP.part.buried>
-3.4228

> <Gold.PLP.part.nonpolar>
-37.5554

> <Gold.PLP.part.repulsive>
1.1872

> <Gold.PLP.ligand.clash>
0.0000

> <Gold.PLP.ligand.torsion>
2.1496

> <Gold.PLP.Chemscore.Hbond>
2.4591

> <Gold.PLP.Chemscore.CHOScore>
0.0000

> <Gold.PLP.Chemscore.Metal>
0.0000

> <Gold.Chemscore.Hbonds>
donor molecule, donor type, donor heavy atom, donor atom, acceptor molecule, acceptor atom, score
      P1  H  6896  6909       L1     4  0.25
      P1  H  6931  6943       L1    10  1.00
      P1  H  6934  6947       L1    10  0.37
      P1  H  7989  7998       L1    22  0.54

> <Gold.PLP.Chemscore.Internal.Correction>
0.1344

> <Gold.Rescore>
     Score         DG    S(hbond)    S(metal)    S(lipo)     H(rot)  DE(clash)    DE(int)     intcor
     12.11     -14.24       0.98        0.00      88.78       1.92       0.11       2.01       ----

> <Gold.Chemscore.Fitness>
12.1121

> <Gold.Chemscore.DG>
-14.2364

> <Gold.Chemscore.ZeroCoef>
-5.4800

> <Gold.Chemscore.Hbond>
0.9826

> <Gold.Chemscore.Metal>
0.0000

> <Gold.Chemscore.Lipo>
88.7783

> <Gold.Chemscore.Internal_Hbond>
0.0000

> <Gold.Chemscore.DEClash>
0.1122

> <Gold.Chemscore.DEInternal>
2.0122

> <Gold.Chemscore.Rot>
1.9190

> <Gold.Chemscore.Internal.Correction>
   9.000000E+99

> <Gold.Chemscore.Hbonds>
donor molecule, donor type, donor heavy atom, donor atom, acceptor molecule, acceptor atom, score
      P1  H  6896  6909       L1     4  0.01
      P1  H  6931  6943       L1    10  0.45
      P1  H  6934  6947       L1    10  0.10
      P1  H  7989  7998       L1    22  0.52

> <Gold.Chemscore.Hbond.Weighted>
-3.2820

> <Gold.Chemscore.Metal.Weighted>
-0.0000

> <Gold.Chemscore.Lipo.Weighted>
-10.3871

> <Gold.Chemscore.Internal_Hbond.Weighted>
0.0000

> <Gold.Chemscore.DEClash.Weighted>
0.1122

> <Gold.Chemscore.DEInternal.Weighted>
2.0122

> <Gold.Chemscore.Rot.Weighted>
4.9126

> <Gold.Chemscore.Internal.Correction.Weighted>
   9.000000E+99

> <Gold.Protein.RotatedTorsions>
[ 6907 6896 6895 6894 ] final   89.34 input  -60.11 | X-H torsion
[ 7974 7965 7964 7962 ] final   84.58 input  175.53 | X-H torsion
[ 8008 7997 7996 7995 ] final  -41.86 input   59.86 | X-H torsion
[ 10167 10162 10161 10158 ] final -109.15 input  -65.29 | X-H torsion
[ 10718 10713 10712 10709 ] final  137.84 input   66.30 | X-H torsion
[ 10763 10752 10751 10750 ] final -118.40 input  -60.55 | X-H torsion
[ 11005 11000 10999 10996 ] final  113.51 input  -57.11 | X-H torsion

> <Gold.Protein.ActiveResidues>
 VAL166  LYS551  ARG553  GLY616  TRP617  ASP618  TYR619  PRO620  LYS621  CYS622 
 ASP623  PHE694  ASN695  SER759  ASP760  ASP761  ALA762  ILE779  LEU786  VAL792 
 PHE793  MET794  SER795  GLU796  ALA797  LYS798  CYS799  TRP800  GLU811  SER814 

> <Gold.Protein.RotatedAtoms>
  152.5435  134.1981  159.8700 H   0  0  0  0  0  0  0  0  0  0  0  0  # atno 6907 bound_to 6896
  151.1972  133.4625  159.2603 H   0  0  0  0  0  0  0  0  0  0  0  0  # atno 6908 bound_to 6896
  151.1025  134.9993  159.8511 H   0  0  0  0  0  0  0  0  0  0  0  0  # atno 6909 bound_to 6896
  145.5968  139.2346  143.2268 H   0  0  0  0  0  0  0  0  0  0  0  0  # atno 7974 bound_to 7965
  154.4001  140.1488  156.3261 H   0  0  0  0  0  0  0  0  0  0  0  0  # atno 8008 bound_to 7997
  155.8486  140.3459  155.5657 H   0  0  0  0  0  0  0  0  0  0  0  0  # atno 8009 bound_to 7997
  155.8009  140.0870  157.1948 H   0  0  0  0  0  0  0  0  0  0  0  0  # atno 8010 bound_to 7997
  140.1584  143.4141  152.1444 H   0  0  0  0  0  0  0  0  0  0  0  0  # atno 10167 bound_to 10162
  157.4318  131.1049  151.0242 H   0  0  0  0  0  0  0  0  0  0  0  0  # atno 10718 bound_to 10713
  154.8586  135.4275  154.2132 H   0  0  0  0  0  0  0  0  0  0  0  0  # atno 10763 bound_to 10752
  153.3153  135.6978  153.7084 H   0  0  0  0  0  0  0  0  0  0  0  0  # atno 10764 bound_to 10752
  153.6161  135.3510  155.2969 H   0  0  0  0  0  0  0  0  0  0  0  0  # atno 10765 bound_to 10752
  139.8955  134.9551  156.6750 H   0  0  0  0  0  0  0  0  0  0  0  0  # atno 11005 bound_to 11000
  146.1606  140.6794  142.9279 LP  0  0  0  0  0  0  0  0  0  0  0  0  # atno 17320 bound_to 7965
  144.7327  140.4719  143.6926 LP  0  0  0  0  0  0  0  0  0  0  0  0  # atno 17321 bound_to 7965
  139.5393  144.7240  151.4789 LP  0  0  0  0  0  0  0  0  0  0  0  0  # atno 17342 bound_to 10162
  140.6658  143.8400  150.6941 LP  0  0  0  0  0  0  0  0  0  0  0  0  # atno 17343 bound_to 10162
  157.1136  130.6032  149.5488 LP  0  0  0  0  0  0  0  0  0  0  0  0  # atno 17370 bound_to 10713
  155.9916  130.4971  150.7305 LP  0  0  0  0  0  0  0  0  0  0  0  0  # atno 17371 bound_to 10713
  140.7343  133.9032  155.8233 LP  0  0  0  0  0  0  0  0  0  0  0  0  # atno 17394 bound_to 11000
  141.0128  134.0997  157.4203 LP  0  0  0  0  0  0  0  0  0  0  0  0  # atno 17395 bound_to 11000

$$$$
