AV-unprocessed.smi:1186|AV-procd|sdf|4975|dock3
  -GOLD-   22720 3573D 1   1.00000     0.00000
 Structure written by MMmdl.
 39 40  0  0  0  0  0  0  0  0  1 V2000
  144.6805  137.0072  152.4108 O   0  0  0  0  0  0  0  0  0  0  0  0
  145.8753  136.7950  152.2045 C   0  0  0  0  0  0  0  0  0  0  0  0
  146.7831  137.7584  151.9957 N   0  0  0  0  0  0  0  0  0  0  0  0
  146.4925  139.1890  151.9959 C   0  0  0  0  0  0  0  0  0  0  0  0
  147.2808  140.0021  153.0151 C   0  0  0  0  0  0  0  0  0  0  0  0
  146.9121  141.3160  153.3766 C   0  0  0  0  0  0  0  0  0  0  0  0
  147.6990  141.9955  154.3243 C   0  0  0  0  0  0  0  0  0  0  0  0
  148.7827  141.4508  154.9149 N   0  0  0  0  0  0  0  0  0  0  0  0
  149.1380  140.1834  154.5895 C   0  0  0  0  0  0  0  0  0  0  0  0
  150.2671  139.6204  155.2225 N   0  0  0  0  0  0  0  0  0  0  0  0
  151.2015  138.8543  154.4002 C   0  0  0  0  0  0  0  0  0  0  0  0
  152.1988  138.0935  155.2899 C   0  0  0  0  0  0  0  0  0  0  0  0
  152.8578  139.0075  156.1600 O   0  0  0  0  0  0  0  0  0  0  0  0
  151.9414  139.6653  157.0289 C   0  0  0  0  0  0  0  0  0  0  0  0
  150.9282  140.4772  156.2035 C   0  0  0  0  0  0  0  0  0  0  0  0
  148.4082  139.4297  153.6392 C   0  0  0  0  0  0  0  0  0  0  0  0
  146.4284  135.5752  152.1716 N   0  0  0  0  0  0  0  0  0  0  0  0
  145.7133  134.3258  152.4107 C   0  0  0  0  0  0  0  0  0  0  0  0
  146.4481  133.1187  151.8039 C   0  0  0  0  0  0  0  0  0  0  0  0
  146.5364  133.2790  150.4842 F   0  0  0  0  0  0  0  0  0  0  0  0
  147.6799  133.0294  152.3060 F   0  0  0  0  0  0  0  0  0  0  0  0
  145.7904  131.9863  152.0516 F   0  0  0  0  0  0  0  0  0  0  0  0
  147.7426  137.4878  151.8373 H   0  0  0  0  0  0  0  0  0  0  0  0
  146.7167  139.5795  151.0033 H   0  0  0  0  0  0  0  0  0  0  0  0
  145.4235  139.3437  152.1531 H   0  0  0  0  0  0  0  0  0  0  0  0
  146.0524  141.8032  152.9414 H   0  0  0  0  0  0  0  0  0  0  0  0
  147.4495  143.0042  154.6188 H   0  0  0  0  0  0  0  0  0  0  0  0
  150.6584  138.1438  153.7755 H   0  0  0  0  0  0  0  0  0  0  0  0
  151.7380  139.5319  153.7345 H   0  0  0  0  0  0  0  0  0  0  0  0
  151.6921  137.3213  155.8710 H   0  0  0  0  0  0  0  0  0  0  0  0
  152.9434  137.5903  154.6731 H   0  0  0  0  0  0  0  0  0  0  0  0
  151.4319  138.9341  157.6587 H   0  0  0  0  0  0  0  0  0  0  0  0
  152.4968  140.3257  157.6948 H   0  0  0  0  0  0  0  0  0  0  0  0
  151.4386  141.2845  155.6766 H   0  0  0  0  0  0  0  0  0  0  0  0
  150.2129  140.9432  156.8798 H   0  0  0  0  0  0  0  0  0  0  0  0
  148.7122  138.4279  153.3738 H   0  0  0  0  0  0  0  0  0  0  0  0
  147.4202  135.5045  151.9977 H   0  0  0  0  0  0  0  0  0  0  0  0
  145.5502  134.1740  153.4789 H   0  0  0  0  0  0  0  0  0  0  0  0
  144.7243  134.4168  151.9606 H   0  0  0  0  0  0  0  0  0  0  0  0
  1  2  2  0  0  0  0
  2  3  1  0  0  0  0
  2 17  1  0  0  0  0
  3  4  1  0  0  0  0
  3 23  1  0  0  0  0
  4  5  1  0  0  0  0
  4 24  1  0  0  0  0
  4 25  1  0  0  0  0
  5 16  1  0  0  0  0
  5  6  2  0  0  0  0
  6  7  1  0  0  0  0
  6 26  1  0  0  0  0
  7  8  2  0  0  0  0
  7 27  1  0  0  0  0
  8  9  1  0  0  0  0
  9 10  1  0  0  0  0
  9 16  2  0  0  0  0
 10 15  1  0  0  0  0
 10 11  1  0  0  0  0
 11 12  1  0  0  0  0
 11 28  1  0  0  0  0
 11 29  1  0  0  0  0
 12 13  1  0  0  0  0
 12 30  1  0  0  0  0
 12 31  1  0  0  0  0
 13 14  1  0  0  0  0
 14 15  1  0  0  0  0
 14 32  1  0  0  0  0
 14 33  1  0  0  0  0
 15 34  1  0  0  0  0
 15 35  1  0  0  0  0
 16 36  1  0  0  0  0
 17 18  1  0  0  0  0
 17 37  1  0  0  0  0
 18 19  1  0  0  0  0
 18 38  1  0  0  0  0
 18 39  1  0  0  0  0
 19 20  1  0  0  0  0
 19 21  1  0  0  0  0
 19 22  1  0  0  0  0
M  END
> <s_m_source_file>
AV-unprocessed.smi

> <i_m_source_file_index>
1186

> <i_lp_mmshare_version>
43012

> <i_f3d_flags>
0

> <s_epik_input>
RkMoRikoRilbQ0gyXVtOSF1DKD1PKVtOSF1bQ0gyXWMxW2NIXVtjSF1uYyhbY0hdMSlOMltDSDJdW0NIMl1PW0NIMl1bQ0gyXTI=

> <s_epik_cmdline>
J2VwaWtfcHl0aG9uJywgJy1waCcsICc3LjAnLCAnLXRuJywgJzgnLCAnLW1hJywgJzIwMCcsICctbWV0YWxfYmluZGluZycsICctaW1hZScsICc8aW5maWxlLm1hZT4nLCAnLW9tYWUnLCAnPG91dGZpbGUubWFlPic=

> <r_lp_tautomer_probability>
1

> <r_epik_Ionization_Penalty>
0.00300827

> <r_epik_Ionization_Penalty_Charging>
0

> <r_epik_Ionization_Penalty_Neutral>
0.00300827

> <r_epik_State_Penalty>
0.0020903

> <r_epik_Charging_Adjusted_Penalty>
0.0020903

> <i_epik_Tot_Q>
0

> <i_epik_Tot_abs_Q>
0

> <r_epik_Metal_State_Penalty>
-0

> <b_epik_Metal_Only>
0

> <s_lp_Force_Field>
OPLS_2005

> <r_lp_Energy>
10.4369

> <b_lp_Chiralities_Consistent>
1

> <s_lp_Variant>
AV-unprocessed.smi:1186-1

> <Gold.Version>
5.8.1

> <Gold.Id.Protein>
6NUR|6NUR_protein|mol2

> <Gold.PLP.Fitness>
49.8378

> <Gold.PLP.PLP>
-38.6307

> <Gold.PLP.part.hbond>
-3.0000

> <Gold.PLP.part.metal>
0.0000

> <Gold.PLP.part.buried>
0.3420

> <Gold.PLP.part.nonpolar>
-35.9486

> <Gold.PLP.part.repulsive>
0.4906

> <Gold.PLP.ligand.clash>
0.0000

> <Gold.PLP.ligand.torsion>
0.5778

> <Gold.PLP.Chemscore.Hbond>
3.0000

> <Gold.PLP.Chemscore.CHOScore>
1.0000

> <Gold.PLP.Chemscore.Metal>
0.0000

> <Gold.Chemscore.Hbonds>
donor molecule, donor type, donor heavy atom, donor atom, acceptor molecule, acceptor atom, score
      L1  H     3    23       P1  7948  0.99
      L1  H    17    37       P1  7948  1.00
      P1  H  7997  8008       L1    13  1.00
      L1  C     7    27       P1  8028  1.00

> <Gold.PLP.Chemscore.Internal.Correction>
0.3627

> <Gold.Rescore>
     Score         DG    S(hbond)    S(metal)    S(lipo)     H(rot)  DE(clash)    DE(int)     intcor
     16.91     -17.72       2.82        0.00      69.88       2.09       0.39       0.42       ----

> <Gold.Chemscore.Fitness>
16.9083

> <Gold.Chemscore.DG>
-17.7231

> <Gold.Chemscore.ZeroCoef>
-5.4800

> <Gold.Chemscore.Hbond>
2.8195

> <Gold.Chemscore.Metal>
0.0000

> <Gold.Chemscore.Lipo>
69.8805

> <Gold.Chemscore.Internal_Hbond>
0.0000

> <Gold.Chemscore.DEClash>
0.3899

> <Gold.Chemscore.DEInternal>
0.4248

> <Gold.Chemscore.Rot>
2.0899

> <Gold.Chemscore.Internal.Correction>
   9.000000E+99

> <Gold.Chemscore.Hbonds>
donor molecule, donor type, donor heavy atom, donor atom, acceptor molecule, acceptor atom, score
      L1  H     3    23       P1  7948  0.93
      L1  H    17    37       P1  7948  0.96
      P1  H  7997  8008       L1    13  0.40

> <Gold.Chemscore.Hbond.Weighted>
-9.4173

> <Gold.Chemscore.Metal.Weighted>
-0.0000

> <Gold.Chemscore.Lipo.Weighted>
-8.1760

> <Gold.Chemscore.Internal_Hbond.Weighted>
0.0000

> <Gold.Chemscore.DEClash.Weighted>
0.3899

> <Gold.Chemscore.DEInternal.Weighted>
0.4248

> <Gold.Chemscore.Rot.Weighted>
5.3502

> <Gold.Chemscore.Internal.Correction.Weighted>
   9.000000E+99

> <Gold.Protein.RotatedTorsions>
[ 6907 6896 6895 6894 ] final   -2.93 input  -60.11 | X-H torsion
[ 7974 7965 7964 7962 ] final -160.71 input  175.53 | X-H torsion
[ 8008 7997 7996 7995 ] final  -35.80 input   59.86 | X-H torsion
[ 10167 10162 10161 10158 ] final  111.29 input  -65.29 | X-H torsion
[ 10718 10713 10712 10709 ] final   39.21 input   66.30 | X-H torsion
[ 10763 10752 10751 10750 ] final  -99.45 input  -60.55 | X-H torsion
[ 11005 11000 10999 10996 ] final  -48.69 input  -57.11 | X-H torsion

> <Gold.Protein.ActiveResidues>
 VAL166  LYS551  ARG553  GLY616  TRP617  ASP618  TYR619  PRO620  LYS621  CYS622 
 ASP623  PHE694  ASN695  SER759  ASP760  ASP761  ALA762  ILE779  LEU786  VAL792 
 PHE793  MET794  SER795  GLU796  ALA797  LYS798  CYS799  TRP800  GLU811  SER814 

> <Gold.Protein.RotatedAtoms>
  151.5219  135.1067  159.9880 H   0  0  0  0  0  0  0  0  0  0  0  0  # atno 6907 bound_to 6896
  152.4616  133.7831  159.6872 H   0  0  0  0  0  0  0  0  0  0  0  0  # atno 6908 bound_to 6896
  150.8581  133.7619  159.3027 H   0  0  0  0  0  0  0  0  0  0  0  0  # atno 6909 bound_to 6896
  144.7417  140.3502  143.6117 H   0  0  0  0  0  0  0  0  0  0  0  0  # atno 7974 bound_to 7965
  154.4087  140.1648  156.2270 H   0  0  0  0  0  0  0  0  0  0  0  0  # atno 8008 bound_to 7997
  155.9315  140.3414  155.6230 H   0  0  0  0  0  0  0  0  0  0  0  0  # atno 8009 bound_to 7997
  155.7100  140.0755  157.2365 H   0  0  0  0  0  0  0  0  0  0  0  0  # atno 8010 bound_to 7997
  139.6623  144.7128  151.1843 H   0  0  0  0  0  0  0  0  0  0  0  0  # atno 10167 bound_to 10162
  157.3679  130.7685  149.7096 H   0  0  0  0  0  0  0  0  0  0  0  0  # atno 10718 bound_to 10713
  154.7499  135.4971  153.9270 H   0  0  0  0  0  0  0  0  0  0  0  0  # atno 10763 bound_to 10752
  153.1132  135.6714  153.9471 H   0  0  0  0  0  0  0  0  0  0  0  0  # atno 10764 bound_to 10752
  153.9225  135.3087  155.3426 H   0  0  0  0  0  0  0  0  0  0  0  0  # atno 10765 bound_to 10752
  141.0716  133.6677  156.3478 H   0  0  0  0  0  0  0  0  0  0  0  0  # atno 11005 bound_to 11000
  145.7284  139.1729  143.2444 LP  0  0  0  0  0  0  0  0  0  0  0  0  # atno 17320 bound_to 7965
  146.1225  140.7291  142.9451 LP  0  0  0  0  0  0  0  0  0  0  0  0  # atno 17321 bound_to 7965
  140.7585  143.5975  150.8733 LP  0  0  0  0  0  0  0  0  0  0  0  0  # atno 17342 bound_to 10162
  139.9634  143.6138  152.2995 LP  0  0  0  0  0  0  0  0  0  0  0  0  # atno 17343 bound_to 10162
  155.9749  130.4095  150.3884 LP  0  0  0  0  0  0  0  0  0  0  0  0  # atno 17370 bound_to 10713
  157.1971  131.0429  151.2670 LP  0  0  0  0  0  0  0  0  0  0  0  0  # atno 17371 bound_to 10713
  140.5662  134.5885  157.5446 LP  0  0  0  0  0  0  0  0  0  0  0  0  # atno 17394 bound_to 11000
  139.9529  134.7586  156.0407 LP  0  0  0  0  0  0  0  0  0  0  0  0  # atno 17395 bound_to 11000

$$$$
