#       Name:                AV-unprocessed.smi:3226
#       Creating user name   scv26
#       Creation time:       Fri Mar 27 18:16:00 2020


#       File generated by GOLD software.
#

@<TRIPOS>MOLECULE
AV-unprocessed.smi:3226
    43    45     1
SMALL
NO_CHARGES


@<TRIPOS>ATOM
      1 ****        -4.4486  -0.3634  -3.7694 C.3            1 S1                 0.0000
      2 ****        -3.2949   0.4860  -3.2245 C.3            1 S1                 0.0000
      3 ****        -3.3927   0.7084  -1.7467 C.2            1 S1                 0.0000
      4 ****        -4.0893   1.7117  -1.1996 N.2            1 S1                 0.0000
      5 ****        -3.9587   1.5562   0.1656 N.2            1 S1                 0.0000
      6 ****        -3.2042   0.4682   0.3078 C.2            1 S1                 0.0000
      7 ****        -2.8132  -0.1072  -0.8402 N.pl3          1 S1                 0.0000
      8 ****        -1.9915  -1.2924  -1.0203 C.3            1 S1                 0.0000
      9 ****        -0.5058  -0.9475  -1.2133 C.3            1 S1                 0.0000
     10 ****         0.0761  -0.3480   0.0043 N.4            1 S1                 1.0000
     11 ****         1.5011   0.0139  -0.1230 C.3            1 S1                 0.0000
     12 ****         2.0396   0.6194   1.1864 C.3            1 S1                 0.0000
     13 ****         3.5099   1.1292   1.0685 C.3            1 S1                 0.0000
     14 ****         4.2325   0.3962   2.2224 C.3            1 S1                 0.0000
     15 ****         3.6519   0.8879   3.5315 C.2            1 S1                 0.0000
     16 ****         2.4086   0.4112   3.6177 C.2            1 S1                 0.0000
     17 ****         2.1459  -0.3916   2.3603 C.3            1 S1                 0.0000
     18 ****         3.5478  -0.9696   2.1247 C.3            1 S1                 0.0000
     19 ****        -4.3541  -0.5027  -4.8464 H              1 S1                 0.0000
     20 ****        -5.4112   0.1119  -3.5783 H              1 S1                 0.0000
     21 ****        -4.4651  -1.3502  -3.3059 H              1 S1                 0.0000
     22 ****        -2.3399   0.0201  -3.4659 H              1 S1                 0.0000
     23 ****        -3.2918   1.4568  -3.7213 H              1 S1                 0.0000
     24 ****        -2.9259   0.0824   1.2776 H              1 S1                 0.0000
     25 ****        -2.1233  -1.9453  -0.1564 H              1 S1                 0.0000
     26 ****        -2.3638  -1.8455  -1.8829 H              1 S1                 0.0000
     27 ****         0.0486  -1.8547  -1.4568 H              1 S1                 0.0000
     28 ****        -0.3800  -0.2633  -2.0533 H              1 S1                 0.0000
     29 ****        -0.4453   0.4863   0.2329 H              1 S1                 0.0000
     30 ****         2.0767  -0.8655  -0.4129 H              1 S1                 0.0000
     31 ****         1.6032   0.7406  -0.9300 H              1 S1                 0.0000
     32 ****         1.3896   1.4490   1.4720 H              1 S1                 0.0000
     33 ****         3.9516   0.8564   0.1089 H              1 S1                 0.0000
     34 ****         3.5789   2.2135   1.1665 H              1 S1                 0.0000
     35 ****         5.3219   0.3795   2.1798 H              1 S1                 0.0000
     36 ****         4.1652   1.5304   4.2316 H              1 S1                 0.0000
     37 ****         1.6874   0.5832   4.4031 H              1 S1                 0.0000
     38 ****         1.3444  -1.1249   2.4533 H              1 S1                 0.0000
     39 ****         3.6782  -1.4610   1.1593 H              1 S1                 0.0000
     40 ****         3.8613  -1.6594   2.9112 H              1 S1                 0.0000
     41 ****        -0.0193  -1.0071   0.7637 H              1 S1                 0.0000
     42 ****        -4.5986   2.4257  -1.6801 LP             1 S1                 0.0000
     43 ****        -4.3444   2.1318   0.8866 LP             1 S1                 0.0000
@<TRIPOS>BOND
    1    1    2 1     
    2    1   19 1     
    3    1   20 1     
    4    1   21 1     
    5    2    3 1     
    6    2   22 1     
    7    2   23 1     
    8    3    7 1     
    9    3    4 2     
   10    4    5 1     
   11    5    6 2     
   12    6    7 1     
   13    6   24 1     
   14    7    8 1     
   15    8    9 1     
   16    8   25 1     
   17    8   26 1     
   18    9   10 1     
   19    9   27 1     
   20    9   28 1     
   21   10   11 1     
   22   10   29 1     
   23   10   41 1     
   24   11   12 1     
   25   11   30 1     
   26   11   31 1     
   27   12   17 1     
   28   12   13 1     
   29   12   32 1     
   30   13   14 1     
   31   13   33 1     
   32   13   34 1     
   33   14   18 1     
   34   14   15 1     
   35   14   35 1     
   36   15   16 2     
   37   15   36 1     
   38   16   17 1     
   39   16   37 1     
   40   17   18 1     
   41   17   38 1     
   42   18   39 1     
   43   18   40 1     
   44    4   42 1     
   45    5   43 1     
@<TRIPOS>SUBSTRUCTURE
      1 S1             1
@<TRIPOS>SET
LONE_PAIRS      STATIC     ATOMS    <user>   **** ""
2 42 43
DONOR_HYDROGENS      STATIC     ATOMS    <user>   **** ""
2 29 41
ATOM$BLUE        STATIC     ATOMS    COLORGROUP SYSTEM
2 42 43
ATOM$RED        STATIC     ATOMS    COLORGROUP SYSTEM
2 29 41
