#       Name:                AV-unprocessed.smi:1445
#       Creating user name   scv26
#       Creation time:       Fri Mar 27 05:56:44 2020


#       File generated by GOLD software.
#

@<TRIPOS>MOLECULE
AV-unprocessed.smi:1445
    51    52     1
SMALL
NO_CHARGES


@<TRIPOS>ATOM
      1 ****        -6.6968  -0.9069   0.1407 C.3            1 S1                 0.0000
      2 ****        -5.4039  -0.4594  -0.2524 O.3            1 S1                 0.0000
      3 ****        -5.2035   0.8953  -0.4378 C.ar           1 S1                 0.0000
      4 ****        -6.2497   1.7361  -0.2391 N.ar           1 S1                 0.0000
      5 ****        -6.0558   3.0584  -0.4224 C.ar           1 S1                 0.0000
      6 ****        -4.8228   3.6088  -0.8175 C.ar           1 S1                 0.0000
      7 ****        -3.7362   2.7390  -1.0241 C.ar           1 S1                 0.0000
      8 ****        -3.9193   1.3502  -0.8184 C.ar           1 S1                 0.0000
      9 ****        -2.8915   0.3875  -1.0159 N.am           1 S1                 0.0000
     10 ****        -1.5636   0.5586  -0.9049 C.2            1 S1                 0.0000
     11 ****        -1.0042   1.6141  -0.6069 O.2            1 S1                 0.0000
     12 ****        -0.9017  -0.5845  -1.1350 N.am           1 S1                 0.0000
     13 ****         0.5476  -0.7299  -1.0609 C.3            1 S1                 0.0000
     14 ****         1.0261  -0.8383   0.4000 C.3            1 S1                 0.0000
     15 ****         2.4999  -0.9793   0.5021 N.4            1 S1                 1.0000
     16 ****         2.9142  -1.6603   1.7560 C.3            1 S1                 0.0000
     17 ****         4.4279  -1.9252   1.7695 C.3            1 S1                 0.0000
     18 ****         5.2159  -0.6237   1.5658 C.3            1 S1                 0.0000
     19 ****         4.7499   0.1194   0.3001 C.3            1 S1                 0.0000
     20 ****         5.2384  -0.5473  -0.9976 C.3            1 S1                 0.0000
     21 ****         3.2193   0.3110   0.3171 C.3            1 S1                 0.0000
     22 ****        -6.6872  -1.9918   0.2438 H              1 S1                 0.0000
     23 ****        -7.4514  -0.6527  -0.6050 H              1 S1                 0.0000
     24 ****        -6.9886  -0.4860   1.1040 H              1 S1                 0.0000
     25 ****        -6.9114   3.6960  -0.2560 H              1 S1                 0.0000
     26 ****        -4.7146   4.6733  -0.9639 H              1 S1                 0.0000
     27 ****        -2.7925   3.1491  -1.3487 H              1 S1                 0.0000
     28 ****        -3.2102  -0.5572  -1.1751 H              1 S1                 0.0000
     29 ****        -1.4355  -1.4079  -1.3732 H              1 S1                 0.0000
     30 ****         0.8279  -1.6290  -1.6104 H              1 S1                 0.0000
     31 ****         1.0181   0.1064  -1.5787 H              1 S1                 0.0000
     32 ****         0.7015   0.0210   0.9892 H              1 S1                 0.0000
     33 ****         0.5457  -1.7115   0.8439 H              1 S1                 0.0000
     34 ****         2.6295  -1.0500   2.6147 H              1 S1                 0.0000
     35 ****         2.3873  -2.6104   1.8530 H              1 S1                 0.0000
     36 ****         4.7147  -2.3868   2.7148 H              1 S1                 0.0000
     37 ****         4.6841  -2.6434   0.9899 H              1 S1                 0.0000
     38 ****         5.0683   0.0199   2.4340 H              1 S1                 0.0000
     39 ****         6.2856  -0.8306   1.5180 H              1 S1                 0.0000
     40 ****         5.2028   1.1115   0.3228 H              1 S1                 0.0000
     41 ****         4.8162  -1.5434  -1.1291 H              1 S1                 0.0000
     42 ****         6.3244  -0.6437  -1.0027 H              1 S1                 0.0000
     43 ****         4.9595   0.0457  -1.8689 H              1 S1                 0.0000
     44 ****         2.9069   0.7967  -0.6068 H              1 S1                 0.0000
     45 ****         2.9440   0.9890   1.1269 H              1 S1                 0.0000
     46 ****         2.7830  -1.5874  -0.2532 H              1 S1                 0.0000
     47 ****        -5.1853  -0.9113  -1.1173 LP             1 S1                 0.0000
     48 ****        -4.7607  -0.7593   0.4522 LP             1 S1                 0.0000
     49 ****        -7.1439   1.3836   0.0368 LP             1 S1                 0.0000
     50 ****        -1.5473   2.4338  -0.4250 LP             1 S1                 0.0000
     51 ****        -0.0067   1.6517  -0.5468 LP             1 S1                 0.0000
@<TRIPOS>BOND
    1    1    2 1     
    2    1   22 1     
    3    1   23 1     
    4    1   24 1     
    5    2    3 1     
    6    3    8 ar    
    7    3    4 ar    
    8    4    5 ar    
    9    5    6 ar    
   10    5   25 1     
   11    6    7 ar    
   12    6   26 1     
   13    7    8 ar    
   14    7   27 1     
   15    8    9 1     
   16    9   10 am    
   17    9   28 1     
   18   10   11 2     
   19   10   12 am    
   20   12   13 1     
   21   12   29 1     
   22   13   14 1     
   23   13   30 1     
   24   13   31 1     
   25   14   15 1     
   26   14   32 1     
   27   14   33 1     
   28   15   21 1     
   29   15   16 1     
   30   15   46 1     
   31   16   17 1     
   32   16   34 1     
   33   16   35 1     
   34   17   18 1     
   35   17   36 1     
   36   17   37 1     
   37   18   19 1     
   38   18   38 1     
   39   18   39 1     
   40   19   20 1     
   41   19   21 1     
   42   19   40 1     
   43   20   41 1     
   44   20   42 1     
   45   20   43 1     
   46   21   44 1     
   47   21   45 1     
   48    2   47 1     
   49    2   48 1     
   50    4   49 1     
   51   11   50 1     
   52   11   51 1     
@<TRIPOS>SUBSTRUCTURE
      1 S1             1
@<TRIPOS>SET
LONE_PAIRS      STATIC     ATOMS    <user>   **** ""
5 47 48 49 50 51
DONOR_HYDROGENS      STATIC     ATOMS    <user>   **** ""
3 28 29 46
ATOM$BLUE        STATIC     ATOMS    COLORGROUP SYSTEM
5 47 48 49 50 51
ATOM$RED        STATIC     ATOMS    COLORGROUP SYSTEM
3 28 29 46
