AV-unprocessed.smi:2746|AV-procd|sdf|10572|dock8
  -GOLD-   2272015 23D 1   1.00000     0.00000
 Structure written by MMmdl.
 38 39  0  0  0  0  0  0  0  0  1 V2000
  151.8632  144.9320  160.4215 C   0  0  0  0  0  0  0  0  0  0  0  0
  152.2325  144.4920  159.2092 C   0  0  0  0  0  0  0  0  0  0  0  0
  152.5452  143.0442  158.8794 C   0  0  1  0  0  0  0  0  0  0  0  0
  152.5168  142.1711  160.1404 C   0  0  0  0  0  0  0  0  0  0  0  0
  151.5858  142.5267  157.9102 N   0  0  0  0  0  0  0  0  0  0  0  0
  151.6370  141.3152  157.3297 C   0  0  0  0  0  0  0  0  0  0  0  0
  152.5322  140.4979  157.5495 O   0  0  0  0  0  0  0  0  0  0  0  0
  150.5420  141.0170  156.3406 C   0  0  0  0  0  0  0  0  0  0  0  0
  149.2425  141.5336  156.5529 C   0  0  0  0  0  0  0  0  0  0  0  0
  148.2297  141.2579  155.6071 C   0  0  0  0  0  0  0  0  0  0  0  0
  146.9214  141.7387  155.7539 N   0  0  0  0  0  0  0  0  0  0  0  0
  146.6749  142.3862  157.0361 C   0  0  0  0  0  0  0  0  0  0  0  0
  145.1895  142.7708  157.1532 C   0  0  0  0  0  0  0  0  0  0  0  0
  144.8195  143.5926  156.0494 O   0  0  0  0  0  0  0  0  0  0  0  0
  144.9956  142.9249  154.8029 C   0  0  0  0  0  0  0  0  0  0  0  0
  146.4763  142.5459  154.6256 C   0  0  0  0  0  0  0  0  0  0  0  0
  148.5584  140.4788  154.4811 C   0  0  0  0  0  0  0  0  0  0  0  0
  149.8788  140.0098  154.3509 C   0  0  0  0  0  0  0  0  0  0  0  0
  150.8493  140.2697  155.2517 N   0  0  0  0  0  0  0  0  0  0  0  0
  151.7664  144.2552  161.2578 H   0  0  0  0  0  0  0  0  0  0  0  0
  151.6534  145.9775  160.5926 H   0  0  0  0  0  0  0  0  0  0  0  0
  152.3184  145.1993  158.3969 H   0  0  0  0  0  0  0  0  0  0  0  0
  153.5489  142.9883  158.4532 H   0  0  0  0  0  0  0  0  0  0  0  0
  153.2426  142.5212  160.8751 H   0  0  0  0  0  0  0  0  0  0  0  0
  152.7626  141.1350  159.9050 H   0  0  0  0  0  0  0  0  0  0  0  0
  151.5334  142.1817  160.6123 H   0  0  0  0  0  0  0  0  0  0  0  0
  150.8181  143.1320  157.6570 H   0  0  0  0  0  0  0  0  0  0  0  0
  149.0232  142.1322  157.4255 H   0  0  0  0  0  0  0  0  0  0  0  0
  146.9524  141.7140  157.8488 H   0  0  0  0  0  0  0  0  0  0  0  0
  147.2947  143.2791  157.1282 H   0  0  0  0  0  0  0  0  0  0  0  0
  144.5586  141.8810  157.1849 H   0  0  0  0  0  0  0  0  0  0  0  0
  145.0143  143.3187  158.0789 H   0  0  0  0  0  0  0  0  0  0  0  0
  144.3597  142.0392  154.7599 H   0  0  0  0  0  0  0  0  0  0  0  0
  144.6769  143.5855  153.9967 H   0  0  0  0  0  0  0  0  0  0  0  0
  147.0834  143.4496  154.5546 H   0  0  0  0  0  0  0  0  0  0  0  0
  146.6121  141.9907  153.6966 H   0  0  0  0  0  0  0  0  0  0  0  0
  147.8166  140.2444  153.7316 H   0  0  0  0  0  0  0  0  0  0  0  0
  150.1640  139.4101  153.4994 H   0  0  0  0  0  0  0  0  0  0  0  0
  1  2  2  0  0  0  0
  1 20  1  0  0  0  0
  1 21  1  0  0  0  0
  2  3  1  0  0  0  0
  2 22  1  0  0  0  0
  3  4  1  0  0  0  0
  3  5  1  0  0  0  0
  3 23  1  0  0  0  0
  4 24  1  0  0  0  0
  4 25  1  0  0  0  0
  4 26  1  0  0  0  0
  5  6  1  0  0  0  0
  5 27  1  0  0  0  0
  6  7  2  0  0  0  0
  6  8  1  0  0  0  0
  8 19  1  0  0  0  0
  8  9  2  0  0  0  0
  9 10  1  0  0  0  0
  9 28  1  0  0  0  0
 10 11  1  0  0  0  0
 10 17  2  0  0  0  0
 11 16  1  0  0  0  0
 11 12  1  0  0  0  0
 12 13  1  0  0  0  0
 12 29  1  0  0  0  0
 12 30  1  0  0  0  0
 13 14  1  0  0  0  0
 13 31  1  0  0  0  0
 13 32  1  0  0  0  0
 14 15  1  0  0  0  0
 15 16  1  0  0  0  0
 15 33  1  0  0  0  0
 15 34  1  0  0  0  0
 16 35  1  0  0  0  0
 16 36  1  0  0  0  0
 17 18  1  0  0  0  0
 17 37  1  0  0  0  0
 18 19  2  0  0  0  0
 18 38  1  0  0  0  0
M  END
> <s_m_source_file>
AV-unprocessed.smi

> <i_m_source_file_index>
2746

> <i_lp_mmshare_version>
43012

> <i_f3d_flags>
0

> <s_epik_input>
W0NIMl09W0NIXVtDQEhdKFtDSDNdKVtOSF1DKD1PKWMxW2NIXWMoW2NIXVtjSF1uMSlOMltDSDJdW0NIMl1PW0NIMl1bQ0gyXTI=

> <s_epik_cmdline>
J2VwaWtfcHl0aG9uJywgJy1waCcsICc3LjAnLCAnLXRuJywgJzgnLCAnLW1hJywgJzIwMCcsICctbWV0YWxfYmluZGluZycsICctaW1hZScsICc8aW5maWxlLm1hZT4nLCAnLW9tYWUnLCAnPG91dGZpbGUubWFlPic=

> <r_lp_tautomer_probability>
1

> <r_epik_Ionization_Penalty>
0.373275

> <r_epik_Ionization_Penalty_Charging>
0

> <r_epik_Ionization_Penalty_Neutral>
0.373275

> <r_epik_State_Penalty>
0.370855

> <r_epik_Charging_Adjusted_Penalty>
0.370855

> <i_epik_Tot_Q>
0

> <i_epik_Tot_abs_Q>
0

> <r_epik_Metal_State_Penalty>
0.225885

> <b_epik_Metal_Only>
0

> <s_lp_Force_Field>
OPLS_2005

> <r_lp_Energy>
21.8565

> <b_lp_Chiralities_Consistent>
1

> <s_lp_Variant>
AV-unprocessed.smi:2746-2

> <Gold.Version>
5.8.1

> <Gold.Id.Protein>
6NUR|6NUR_protein|mol2

> <Gold.PLP.Fitness>
40.9344

> <Gold.PLP.PLP>
-37.3808

> <Gold.PLP.part.hbond>
-2.0000

> <Gold.PLP.part.metal>
0.0000

> <Gold.PLP.part.buried>
-2.4702

> <Gold.PLP.part.nonpolar>
-32.9413

> <Gold.PLP.part.repulsive>
0.3257

> <Gold.PLP.ligand.clash>
0.0622

> <Gold.PLP.ligand.torsion>
0.5684

> <Gold.PLP.Chemscore.Hbond>
0.7020

> <Gold.PLP.Chemscore.CHOScore>
0.8394

> <Gold.PLP.Chemscore.Metal>
0.0000

> <Gold.Chemscore.Hbonds>
donor molecule, donor type, donor heavy atom, donor atom, acceptor molecule, acceptor atom, score
      P1  H  7997  8008       L1     7  0.76
      L1  C    18    38       P1  7957  0.87

> <Gold.PLP.Chemscore.Internal.Correction>
0.1286

> <Gold.Rescore>
     Score         DG    S(hbond)    S(metal)    S(lipo)     H(rot)  DE(clash)    DE(int)     intcor
     15.10     -15.79       0.84        0.00      92.08       1.27       0.12       0.58       ----

> <Gold.Chemscore.Fitness>
15.0951

> <Gold.Chemscore.DG>
-15.7949

> <Gold.Chemscore.ZeroCoef>
-5.4800

> <Gold.Chemscore.Hbond>
0.8393

> <Gold.Chemscore.Metal>
0.0000

> <Gold.Chemscore.Lipo>
92.0806

> <Gold.Chemscore.Internal_Hbond>
0.0000

> <Gold.Chemscore.DEClash>
0.1204

> <Gold.Chemscore.DEInternal>
0.5794

> <Gold.Chemscore.Rot>
1.2742

> <Gold.Chemscore.Internal.Correction>
   9.000000E+99

> <Gold.Chemscore.Hbonds>
donor molecule, donor type, donor heavy atom, donor atom, acceptor molecule, acceptor atom, score
      P1  H  7997  8008       L1     7  0.73

> <Gold.Chemscore.Hbond.Weighted>
-2.8034

> <Gold.Chemscore.Metal.Weighted>
-0.0000

> <Gold.Chemscore.Lipo.Weighted>
-10.7734

> <Gold.Chemscore.Internal_Hbond.Weighted>
0.0000

> <Gold.Chemscore.DEClash.Weighted>
0.1204

> <Gold.Chemscore.DEInternal.Weighted>
0.5794

> <Gold.Chemscore.Rot.Weighted>
3.2619

> <Gold.Chemscore.Internal.Correction.Weighted>
   9.000000E+99

> <Gold.Protein.RotatedTorsions>
[ 6907 6896 6895 6894 ] final  177.15 input  -60.11 | X-H torsion
[ 7974 7965 7964 7962 ] final  157.36 input  175.53 | X-H torsion
[ 8008 7997 7996 7995 ] final  -67.39 input   59.86 | X-H torsion
[ 10167 10162 10161 10158 ] final  -22.90 input  -65.29 | X-H torsion
[ 10718 10713 10712 10709 ] final  140.75 input   66.30 | X-H torsion
[ 10763 10752 10751 10750 ] final   36.98 input  -60.55 | X-H torsion
[ 11005 11000 10999 10996 ] final -162.18 input  -57.11 | X-H torsion

> <Gold.Protein.ActiveResidues>
 VAL166  LYS551  ARG553  GLY616  TRP617  ASP618  TYR619  PRO620  LYS621  CYS622 
 ASP623  PHE694  ASN695  SER759  ASP760  ASP761  ALA762  ILE779  LEU786  VAL792 
 PHE793  MET794  SER795  GLU796  ALA797  LYS798  CYS799  TRP800  GLU811  SER814 

> <Gold.Protein.RotatedAtoms>
  151.7086  133.3312  159.3284 H   0  0  0  0  0  0  0  0  0  0  0  0  # atno 6907 bound_to 6896
  150.7704  134.6552  159.6319 H   0  0  0  0  0  0  0  0  0  0  0  0  # atno 6908 bound_to 6896
  152.3725  134.6715  160.0223 H   0  0  0  0  0  0  0  0  0  0  0  0  # atno 6909 bound_to 6896
  144.7908  139.7330  143.6222 H   0  0  0  0  0  0  0  0  0  0  0  0  # atno 7974 bound_to 7965
  154.4797  140.0893  156.7347 H   0  0  0  0  0  0  0  0  0  0  0  0  # atno 8008 bound_to 7997
  155.4503  140.3457  155.4282 H   0  0  0  0  0  0  0  0  0  0  0  0  # atno 8009 bound_to 7997
  156.1172  140.1464  156.9244 H   0  0  0  0  0  0  0  0  0  0  0  0  # atno 8010 bound_to 7997
  140.7287  143.4492  151.0541 H   0  0  0  0  0  0  0  0  0  0  0  0  # atno 10167 bound_to 10162
  157.3998  131.1015  151.0563 H   0  0  0  0  0  0  0  0  0  0  0  0  # atno 10718 bound_to 10713
  153.0055  135.6290  154.2071 H   0  0  0  0  0  0  0  0  0  0  0  0  # atno 10763 bound_to 10752
  154.1815  135.2813  155.3052 H   0  0  0  0  0  0  0  0  0  0  0  0  # atno 10764 bound_to 10752
  154.5831  135.5641  153.7264 H   0  0  0  0  0  0  0  0  0  0  0  0  # atno 10765 bound_to 10752
  140.6121  134.4838  157.5216 H   0  0  0  0  0  0  0  0  0  0  0  0  # atno 11005 bound_to 11000
  146.2159  139.5548  142.9650 LP  0  0  0  0  0  0  0  0  0  0  0  0  # atno 17320 bound_to 7965
  145.5800  141.0383  143.2127 LP  0  0  0  0  0  0  0  0  0  0  0  0  # atno 17321 bound_to 7965
  139.8167  143.7876  152.3174 LP  0  0  0  0  0  0  0  0  0  0  0  0  # atno 17342 bound_to 10162
  139.7945  144.7398  150.9910 LP  0  0  0  0  0  0  0  0  0  0  0  0  # atno 17343 bound_to 10162
  157.1567  130.6207  149.5598 LP  0  0  0  0  0  0  0  0  0  0  0  0  # atno 17370 bound_to 10713
  155.9820  130.4831  150.6858 LP  0  0  0  0  0  0  0  0  0  0  0  0  # atno 17371 bound_to 10713
  139.9188  134.8191  156.1279 LP  0  0  0  0  0  0  0  0  0  0  0  0  # atno 17394 bound_to 11000
  141.0801  133.6758  156.2318 LP  0  0  0  0  0  0  0  0  0  0  0  0  # atno 17395 bound_to 11000

$$$$
