AV-unprocessed.smi:3157|AV-procd|sdf|12038|dock5
  -GOLD-   2272017463D 1   1.00000     0.00000
 Structure written by MMmdl.
 40 41  0  0  0  0  0  0  0  0  2 V2000
  150.0175  140.1295  157.6656 C   0  0  0  0  0  0  0  0  0  0  0  0
  149.4927  141.3268  156.8448 C   0  0  1  0  0  0  0  0  0  0  0  0
  150.0305  142.5923  157.3946 N   0  3  0  0  0  0  0  0  0  0  0  0
  151.4789  142.8044  157.1906 C   0  0  0  0  0  0  0  0  0  0  0  0
  152.0712  143.6899  158.2983 C   0  0  0  0  0  0  0  0  0  0  0  0
  152.1627  143.0049  159.6675 C   0  0  0  0  0  0  0  0  0  0  0  0
  152.1856  144.1402  160.7004 C   0  0  0  0  0  0  0  0  0  0  0  0
  151.7140  145.4045  159.9675 C   0  0  0  0  0  0  0  0  0  0  0  0
  151.2361  144.9376  158.5911 C   0  0  0  0  0  0  0  0  0  0  0  0
  149.8389  141.2235  155.3363 C   0  0  2  0  0  0  0  0  0  0  0  0
  148.5872  141.2351  154.4391 C   0  0  0  0  0  0  0  0  0  0  0  0
  150.6482  140.0474  155.0399 N   0  0  0  0  0  0  0  0  0  0  0  0
  151.9547  139.7826  155.4007 C   0  0  0  0  0  0  0  0  0  0  0  0
  152.2823  138.5624  154.8831 C   0  0  0  0  0  0  0  0  0  0  0  0
  151.0977  138.1514  154.2113 C   0  0  0  0  0  0  0  0  0  0  0  0
  150.1235  139.0418  154.3057 N   0  0  0  0  0  0  0  0  0  0  0  0
  149.5721  139.1890  157.3410 H   0  0  0  0  0  0  0  0  0  0  0  0
  149.7868  140.2302  158.7256 H   0  0  0  0  0  0  0  0  0  0  0  0
  151.0997  140.0319  157.5709 H   0  0  0  0  0  0  0  0  0  0  0  0
  148.4053  141.3499  156.9352 H   0  0  0  0  0  0  0  0  0  0  0  0
  149.5183  143.3649  156.9933 H   0  0  0  0  0  0  0  0  0  0  0  0
  151.9759  141.8333  157.1950 H   0  0  0  0  0  0  0  0  0  0  0  0
  151.6659  143.2523  156.2149 H   0  0  0  0  0  0  0  0  0  0  0  0
  153.0701  144.0172  158.0039 H   0  0  0  0  0  0  0  0  0  0  0  0
  151.2794  142.3865  159.8350 H   0  0  0  0  0  0  0  0  0  0  0  0
  153.0351  142.3559  159.7490 H   0  0  0  0  0  0  0  0  0  0  0  0
  151.5379  143.9054  161.5459 H   0  0  0  0  0  0  0  0  0  0  0  0
  153.1920  144.2875  161.0938 H   0  0  0  0  0  0  0  0  0  0  0  0
  150.9320  145.9332  160.5133 H   0  0  0  0  0  0  0  0  0  0  0  0
  152.5528  146.0922  159.8511 H   0  0  0  0  0  0  0  0  0  0  0  0
  151.3503  145.7080  157.8277 H   0  0  0  0  0  0  0  0  0  0  0  0
  150.1782  144.6764  158.6423 H   0  0  0  0  0  0  0  0  0  0  0  0
  150.4349  142.0998  155.0717 H   0  0  0  0  0  0  0  0  0  0  0  0
  148.0165  142.1562  154.5582 H   0  0  0  0  0  0  0  0  0  0  0  0
  147.9218  140.4020  154.6684 H   0  0  0  0  0  0  0  0  0  0  0  0
  148.8614  141.1600  153.3862 H   0  0  0  0  0  0  0  0  0  0  0  0
  152.5376  140.4771  155.9875 H   0  0  0  0  0  0  0  0  0  0  0  0
  153.2249  138.0424  154.9701 H   0  0  0  0  0  0  0  0  0  0  0  0
  150.9184  137.2398  153.6604 H   0  0  0  0  0  0  0  0  0  0  0  0
  149.8693  142.5870  158.3917 H   0  0  0  0  0  0  0  0  0  0  0  0
  1  2  1  0  0  0  0
  1 17  1  0  0  0  0
  1 18  1  0  0  0  0
  1 19  1  0  0  0  0
  2  3  1  0  0  0  0
  2 10  1  0  0  0  0
  2 20  1  0  0  0  0
  3  4  1  0  0  0  0
  3 21  1  0  0  0  0
  3 40  1  0  0  0  0
  4  5  1  0  0  0  0
  4 22  1  0  0  0  0
  4 23  1  0  0  0  0
  5  9  1  0  0  0  0
  5  6  1  0  0  0  0
  5 24  1  0  0  0  0
  6  7  1  0  0  0  0
  6 25  1  0  0  0  0
  6 26  1  0  0  0  0
  7  8  1  0  0  0  0
  7 27  1  0  0  0  0
  7 28  1  0  0  0  0
  8  9  1  0  0  0  0
  8 29  1  0  0  0  0
  8 30  1  0  0  0  0
  9 31  1  0  0  0  0
  9 32  1  0  0  0  0
 10 11  1  0  0  0  0
 10 12  1  0  0  0  0
 10 33  1  0  0  0  0
 11 34  1  0  0  0  0
 11 35  1  0  0  0  0
 11 36  1  0  0  0  0
 12 16  1  0  0  0  0
 12 13  1  0  0  0  0
 13 14  2  0  0  0  0
 13 37  1  0  0  0  0
 14 15  1  0  0  0  0
 14 38  1  0  0  0  0
 15 16  2  0  0  0  0
 15 39  1  0  0  0  0
M  CHG  1   3   1
M  END
> <s_m_source_file>
AV-unprocessed.smi

> <i_m_source_file_index>
3157

> <i_lp_mmshare_version>
43012

> <i_f3d_flags>
0

> <s_epik_input>
bjFbY0hdW2NIXVtjSF1uMVtDQEBIXShbQ0gzXSlbQ0BIXShbQ0gzXSlbTkhdW0NIMl1bQ0hdMltDSDJdW0NIMl1bQ0gyXVtDSDJdMg==

> <s_epik_cmdline>
J2VwaWtfcHl0aG9uJywgJy1waCcsICc3LjAnLCAnLXRuJywgJzgnLCAnLW1hJywgJzIwMCcsICctbWV0YWxfYmluZGluZycsICctaW1hZScsICc8aW5maWxlLm1hZT4nLCAnLW9tYWUnLCAnPG91dGZpbGUubWFlPic=

> <r_lp_tautomer_probability>
1

> <r_epik_Ionization_Penalty>
0.00132192

> <r_epik_Ionization_Penalty_Charging>
0.0013111

> <r_epik_Ionization_Penalty_Neutral>
1.08112e-05

> <r_epik_State_Penalty>
-0

> <r_epik_Charging_Adjusted_Penalty>
0.0013111

> <i_epik_Tot_Q>
1

> <i_epik_Tot_abs_Q>
1

> <r_epik_Metal_State_Penalty>
-0

> <b_epik_Metal_Only>
0

> <s_lp_Force_Field>
OPLS_2005

> <r_lp_Energy>
32.0676

> <b_lp_Chiralities_Consistent>
1

> <s_lp_Variant>
AV-unprocessed.smi:3157-2

> <Gold.Version>
5.8.1

> <Gold.Id.Protein>
6NUR|6NUR_protein|mol2

> <Gold.PLP.Fitness>
47.8582

> <Gold.PLP.PLP>
-42.5032

> <Gold.PLP.part.hbond>
-1.0000

> <Gold.PLP.part.metal>
0.0000

> <Gold.PLP.part.buried>
-3.4424

> <Gold.PLP.part.nonpolar>
-38.3402

> <Gold.PLP.part.repulsive>
0.2032

> <Gold.PLP.ligand.clash>
0.0000

> <Gold.PLP.ligand.torsion>
1.9951

> <Gold.PLP.Chemscore.Hbond>
2.0000

> <Gold.PLP.Chemscore.CHOScore>
1.0872

> <Gold.PLP.Chemscore.Metal>
0.0000

> <Gold.Chemscore.Hbonds>
donor molecule, donor type, donor heavy atom, donor atom, acceptor molecule, acceptor atom, score
      L1  H     3    21       P1  8028  2.00
      L1  C    15    39       P1  7948  0.12
      L1  C    15    39       P1  7949  0.99

> <Gold.PLP.Chemscore.Internal.Correction>
0.0837

> <Gold.Rescore>
     Score         DG    S(hbond)    S(metal)    S(lipo)     H(rot)  DE(clash)    DE(int)     intcor
     16.26     -18.59       0.98        0.00     116.91       1.50       0.27       2.06       ----

> <Gold.Chemscore.Fitness>
16.2603

> <Gold.Chemscore.DG>
-18.5897

> <Gold.Chemscore.ZeroCoef>
-5.4800

> <Gold.Chemscore.Hbond>
0.9829

> <Gold.Chemscore.Metal>
0.0000

> <Gold.Chemscore.Lipo>
116.9129

> <Gold.Chemscore.Internal_Hbond>
0.0000

> <Gold.Chemscore.DEClash>
0.2723

> <Gold.Chemscore.DEInternal>
2.0570

> <Gold.Chemscore.Rot>
1.5047

> <Gold.Chemscore.Internal.Correction>
   9.000000E+99

> <Gold.Chemscore.Hbonds>
donor molecule, donor type, donor heavy atom, donor atom, acceptor molecule, acceptor atom, score
      L1  H     3    21       P1  8028  0.93

> <Gold.Chemscore.Hbond.Weighted>
-3.2828

> <Gold.Chemscore.Metal.Weighted>
-0.0000

> <Gold.Chemscore.Lipo.Weighted>
-13.6788

> <Gold.Chemscore.Internal_Hbond.Weighted>
0.0000

> <Gold.Chemscore.DEClash.Weighted>
0.2723

> <Gold.Chemscore.DEInternal.Weighted>
2.0570

> <Gold.Chemscore.Rot.Weighted>
3.8520

> <Gold.Chemscore.Internal.Correction.Weighted>
   9.000000E+99

> <Gold.Protein.RotatedTorsions>
[ 6907 6896 6895 6894 ] final   34.47 input  -60.11 | X-H torsion
[ 7974 7965 7964 7962 ] final  -52.97 input  175.53 | X-H torsion
[ 8008 7997 7996 7995 ] final  176.46 input   59.86 | X-H torsion
[ 10167 10162 10161 10158 ] final  -15.42 input  -65.29 | X-H torsion
[ 10718 10713 10712 10709 ] final  104.49 input   66.30 | X-H torsion
[ 10763 10752 10751 10750 ] final -108.35 input  -60.55 | X-H torsion
[ 11005 11000 10999 10996 ] final  150.16 input  -57.11 | X-H torsion

> <Gold.Protein.ActiveResidues>
 VAL166  LYS551  ARG553  GLY616  TRP617  ASP618  TYR619  PRO620  LYS621  CYS622 
 ASP623  PHE694  ASN695  SER759  ASP760  ASP761  ALA762  ILE779  LEU786  VAL792 
 PHE793  MET794  SER795  GLU796  ALA797  LYS798  CYS799  TRP800  GLU811  SER814 

> <Gold.Protein.RotatedAtoms>
  152.1028  134.9330  160.0568 H   0  0  0  0  0  0  0  0  0  0  0  0  # atno 6907 bound_to 6896
  152.0537  133.4026  159.4396 H   0  0  0  0  0  0  0  0  0  0  0  0  # atno 6908 bound_to 6896
  150.6840  134.3199  159.4825 H   0  0  0  0  0  0  0  0  0  0  0  0  # atno 6909 bound_to 6896
  145.9021  140.7986  142.9738 H   0  0  0  0  0  0  0  0  0  0  0  0  # atno 7974 bound_to 7965
  156.0762  140.1383  156.9768 H   0  0  0  0  0  0  0  0  0  0  0  0  # atno 8008 bound_to 7997
  154.4559  140.0961  156.6806 H   0  0  0  0  0  0  0  0  0  0  0  0  # atno 8009 bound_to 7997
  155.5148  140.3454  155.4397 H   0  0  0  0  0  0  0  0  0  0  0  0  # atno 8010 bound_to 7997
  140.7218  143.5220  150.9622 H   0  0  0  0  0  0  0  0  0  0  0  0  # atno 10167 bound_to 10162
  157.6738  131.0805  150.5714 H   0  0  0  0  0  0  0  0  0  0  0  0  # atno 10718 bound_to 10713
  154.8130  135.4641  154.0568 H   0  0  0  0  0  0  0  0  0  0  0  0  # atno 10763 bound_to 10752
  153.1983  135.6865  153.8270 H   0  0  0  0  0  0  0  0  0  0  0  0  # atno 10764 bound_to 10752
  153.7764  135.3263  155.3336 H   0  0  0  0  0  0  0  0  0  0  0  0  # atno 10765 bound_to 10752
  140.1107  134.8926  157.1932 H   0  0  0  0  0  0  0  0  0  0  0  0  # atno 11005 bound_to 11000
  144.6736  140.1693  143.7416 LP  0  0  0  0  0  0  0  0  0  0  0  0  # atno 17320 bound_to 7965
  145.8778  139.2306  143.1623 LP  0  0  0  0  0  0  0  0  0  0  0  0  # atno 17321 bound_to 7965
  139.8937  143.6921  152.3141 LP  0  0  0  0  0  0  0  0  0  0  0  0  # atno 17342 bound_to 10162
  139.7246  144.7595  151.0900 LP  0  0  0  0  0  0  0  0  0  0  0  0  # atno 17343 bound_to 10162
  156.6015  130.4356  149.5895 LP  0  0  0  0  0  0  0  0  0  0  0  0  # atno 17370 bound_to 10713
  156.2502  130.6903  151.1638 LP  0  0  0  0  0  0  0  0  0  0  0  0  # atno 17371 bound_to 10713
  140.3095  134.3040  155.7270 LP  0  0  0  0  0  0  0  0  0  0  0  0  # atno 17394 bound_to 11000
  141.2129  133.7641  156.9756 LP  0  0  0  0  0  0  0  0  0  0  0  0  # atno 17395 bound_to 11000

$$$$
