AV-unprocessed.smi:404|AV-procd|sdf|2497|dock10
  -GOLD-   2262022443D 1   1.00000     0.00000
 Structure written by MMmdl.
 44 45  0  0  0  0  0  0  0  0  1 V2000
  154.1452  141.5278  161.0508 C   0  0  0  0  0  0  0  0  0  0  0  0
  153.2292  142.1349  160.0268 C   0  0  0  0  0  0  0  0  0  0  0  0
  153.2651  143.4404  159.8171 N   0  0  0  0  0  0  0  0  0  0  0  0
  152.3374  143.6617  158.8643 N   0  0  0  0  0  0  0  0  0  0  0  0
  152.1106  145.0138  158.3921 C   0  0  0  0  0  0  0  0  0  0  0  0
  151.7121  142.4940  158.4734 C   0  0  0  0  0  0  0  0  0  0  0  0
  150.6376  142.4761  157.4344 C   0  0  0  0  0  0  0  0  0  0  0  0
  152.2661  141.4779  159.2057 C   0  0  0  0  0  0  0  0  0  0  0  0
  151.9413  140.0062  159.1700 C   0  0  0  0  0  0  0  0  0  0  0  0
  153.2366  139.1971  159.1120 C   0  0  0  0  0  0  0  0  0  0  0  0
  153.9970  139.3230  158.1523 O   0  0  0  0  0  0  0  0  0  0  0  0
  153.4724  138.3711  160.1434 N   0  0  0  0  0  0  0  0  0  0  0  0
  154.6259  137.4863  160.2789 C   0  0  0  0  0  0  0  0  0  0  0  0
  154.6801  136.7888  161.6546 C   0  0  0  0  0  0  0  0  0  0  0  0
  155.1003  137.7414  162.7972 C   0  0  0  0  0  0  0  0  0  0  0  0
  155.1780  137.0155  164.1503 C   0  0  0  0  0  0  0  0  0  0  0  0
  156.1168  135.8021  164.0828 C   0  0  0  0  0  0  0  0  0  0  0  0
  155.6959  134.8443  162.9589 C   0  0  0  0  0  0  0  0  0  0  0  0
  155.6275  135.5720  161.6067 C   0  0  0  0  0  0  0  0  0  0  0  0
  153.5828  141.1845  161.9190 H   0  0  0  0  0  0  0  0  0  0  0  0
  154.8917  142.2420  161.4007 H   0  0  0  0  0  0  0  0  0  0  0  0
  154.6777  140.6704  160.6393 H   0  0  0  0  0  0  0  0  0  0  0  0
  152.1719  145.0388  157.3038 H   0  0  0  0  0  0  0  0  0  0  0  0
  152.8574  145.6956  158.8018 H   0  0  0  0  0  0  0  0  0  0  0  0
  151.1195  145.3470  158.7016 H   0  0  0  0  0  0  0  0  0  0  0  0
  150.1950  141.4847  157.3393 H   0  0  0  0  0  0  0  0  0  0  0  0
  151.0366  142.7602  156.4604 H   0  0  0  0  0  0  0  0  0  0  0  0
  149.8390  143.1725  157.6907 H   0  0  0  0  0  0  0  0  0  0  0  0
  151.3753  139.7009  160.0506 H   0  0  0  0  0  0  0  0  0  0  0  0
  151.3149  139.7559  158.3129 H   0  0  0  0  0  0  0  0  0  0  0  0
  152.7885  138.3392  160.8856 H   0  0  0  0  0  0  0  0  0  0  0  0
  154.5451  136.7352  159.4927 H   0  0  0  0  0  0  0  0  0  0  0  0
  155.5569  138.0226  160.0865 H   0  0  0  0  0  0  0  0  0  0  0  0
  153.6786  136.4179  161.8789 H   0  0  0  0  0  0  0  0  0  0  0  0
  156.0692  138.1864  162.5665 H   0  0  0  0  0  0  0  0  0  0  0  0
  154.3952  138.5678  162.8839 H   0  0  0  0  0  0  0  0  0  0  0  0
  155.5191  137.7058  164.9223 H   0  0  0  0  0  0  0  0  0  0  0  0
  154.1804  136.6890  164.4467 H   0  0  0  0  0  0  0  0  0  0  0  0
  157.1401  136.1394  163.9130 H   0  0  0  0  0  0  0  0  0  0  0  0
  156.1175  135.2776  165.0388 H   0  0  0  0  0  0  0  0  0  0  0  0
  156.3976  134.0119  162.8981 H   0  0  0  0  0  0  0  0  0  0  0  0
  154.7222  134.4116  163.1917 H   0  0  0  0  0  0  0  0  0  0  0  0
  155.2982  134.8729  160.8373 H   0  0  0  0  0  0  0  0  0  0  0  0
  156.6287  135.8961  161.3192 H   0  0  0  0  0  0  0  0  0  0  0  0
  1  2  1  0  0  0  0
  1 20  1  0  0  0  0
  1 21  1  0  0  0  0
  1 22  1  0  0  0  0
  2  8  1  0  0  0  0
  2  3  2  0  0  0  0
  3  4  1  0  0  0  0
  4  5  1  0  0  0  0
  4  6  1  0  0  0  0
  5 23  1  0  0  0  0
  5 24  1  0  0  0  0
  5 25  1  0  0  0  0
  6  7  1  0  0  0  0
  6  8  2  0  0  0  0
  7 26  1  0  0  0  0
  7 27  1  0  0  0  0
  7 28  1  0  0  0  0
  8  9  1  0  0  0  0
  9 10  1  0  0  0  0
  9 29  1  0  0  0  0
  9 30  1  0  0  0  0
 10 11  2  0  0  0  0
 10 12  1  0  0  0  0
 12 13  1  0  0  0  0
 12 31  1  0  0  0  0
 13 14  1  0  0  0  0
 13 32  1  0  0  0  0
 13 33  1  0  0  0  0
 14 19  1  0  0  0  0
 14 15  1  0  0  0  0
 14 34  1  0  0  0  0
 15 16  1  0  0  0  0
 15 35  1  0  0  0  0
 15 36  1  0  0  0  0
 16 17  1  0  0  0  0
 16 37  1  0  0  0  0
 16 38  1  0  0  0  0
 17 18  1  0  0  0  0
 17 39  1  0  0  0  0
 17 40  1  0  0  0  0
 18 19  1  0  0  0  0
 18 41  1  0  0  0  0
 18 42  1  0  0  0  0
 19 43  1  0  0  0  0
 19 44  1  0  0  0  0
M  END
> <s_m_source_file>
AV-unprocessed.smi

> <i_m_source_file_index>
404

> <i_lp_mmshare_version>
43012

> <i_f3d_flags>
0

> <s_epik_input>
W0NIM11jMW5uKFtDSDNdKWMoW0NIM10pYzFbQ0gyXUMoPU8pW05IXVtDSDJdW0NIXTJbQ0gyXVtDSDJdW0NIMl1bQ0gyXVtDSDJdMg==

> <s_epik_cmdline>
J2VwaWtfcHl0aG9uJywgJy1waCcsICc3LjAnLCAnLXRuJywgJzgnLCAnLW1hJywgJzIwMCcsICctbWV0YWxfYmluZGluZycsICctaW1hZScsICc8aW5maWxlLm1hZT4nLCAnLW9tYWUnLCAnPG91dGZpbGUubWFlPic=

> <r_lp_tautomer_probability>
1

> <r_epik_Ionization_Penalty>
0.00317479

> <r_epik_Ionization_Penalty_Charging>
0

> <r_epik_Ionization_Penalty_Neutral>
0.00317479

> <r_epik_State_Penalty>
0.00223767

> <r_epik_Charging_Adjusted_Penalty>
0.00223767

> <i_epik_Tot_Q>
0

> <i_epik_Tot_abs_Q>
0

> <r_epik_Metal_State_Penalty>
-0

> <b_epik_Metal_Only>
0

> <s_lp_Force_Field>
OPLS_2005

> <r_lp_Energy>
5.4513

> <b_lp_Chiralities_Consistent>
1

> <s_lp_Variant>
AV-unprocessed.smi:404-1

> <Gold.Version>
5.8.1

> <Gold.Id.Protein>
6NUR|6NUR_protein|mol2

> <Gold.PLP.Fitness>
47.5458

> <Gold.PLP.PLP>
-45.1372

> <Gold.PLP.part.hbond>
-0.9828

> <Gold.PLP.part.metal>
0.0000

> <Gold.PLP.part.buried>
-5.2702

> <Gold.PLP.part.nonpolar>
-38.8794

> <Gold.PLP.part.repulsive>
0.0786

> <Gold.PLP.ligand.clash>
0.0000

> <Gold.PLP.ligand.torsion>
0.2992

> <Gold.PLP.Chemscore.Hbond>
1.0000

> <Gold.PLP.Chemscore.CHOScore>
0.0000

> <Gold.PLP.Chemscore.Metal>
0.0000

> <Gold.Chemscore.Hbonds>
donor molecule, donor type, donor heavy atom, donor atom, acceptor molecule, acceptor atom, score
      P1  H  7997  8010       L1    11  0.73

> <Gold.PLP.Chemscore.Internal.Correction>
0.0070

> <Gold.Rescore>
     Score         DG    S(hbond)    S(metal)    S(lipo)     H(rot)  DE(clash)    DE(int)     intcor
     19.18     -19.59       0.99        0.00     122.44       1.38       0.21       0.20       ----

> <Gold.Chemscore.Fitness>
19.1773

> <Gold.Chemscore.DG>
-19.5931

> <Gold.Chemscore.ZeroCoef>
-5.4800

> <Gold.Chemscore.Hbond>
0.9916

> <Gold.Chemscore.Metal>
0.0000

> <Gold.Chemscore.Lipo>
122.4413

> <Gold.Chemscore.Internal_Hbond>
0.0000

> <Gold.Chemscore.DEClash>
0.2136

> <Gold.Chemscore.DEInternal>
0.2022

> <Gold.Chemscore.Rot>
1.3768

> <Gold.Chemscore.Internal.Correction>
   9.000000E+99

> <Gold.Chemscore.Hbonds>
donor molecule, donor type, donor heavy atom, donor atom, acceptor molecule, acceptor atom, score
      P1  H  7997  8010       L1    11  0.73

> <Gold.Chemscore.Hbond.Weighted>
-3.3120

> <Gold.Chemscore.Metal.Weighted>
-0.0000

> <Gold.Chemscore.Lipo.Weighted>
-14.3256

> <Gold.Chemscore.Internal_Hbond.Weighted>
0.0000

> <Gold.Chemscore.DEClash.Weighted>
0.2136

> <Gold.Chemscore.DEInternal.Weighted>
0.2022

> <Gold.Chemscore.Rot.Weighted>
3.5245

> <Gold.Chemscore.Internal.Correction.Weighted>
   9.000000E+99

> <Gold.Protein.RotatedTorsions>
[ 6907 6896 6895 6894 ] final   94.86 input  -60.11 | X-H torsion
[ 7974 7965 7964 7962 ] final  -59.97 input  175.53 | X-H torsion
[ 8008 7997 7996 7995 ] final   26.54 input   59.86 | X-H torsion
[ 10167 10162 10161 10158 ] final  141.64 input  -65.29 | X-H torsion
[ 10718 10713 10712 10709 ] final  155.19 input   66.30 | X-H torsion
[ 10763 10752 10751 10750 ] final  140.04 input  -60.55 | X-H torsion
[ 11005 11000 10999 10996 ] final -117.76 input  -57.11 | X-H torsion

> <Gold.Protein.ActiveResidues>
 VAL166  LYS551  ARG553  GLY616  TRP617  ASP618  TYR619  PRO620  LYS621  CYS622 
 ASP623  PHE694  ASN695  SER759  ASP760  ASP761  ALA762  ILE779  LEU786  VAL792 
 PHE793  MET794  SER795  GLU796  ALA797  LYS798  CYS799  TRP800  GLU811  SER814 

> <Gold.Protein.RotatedAtoms>
  152.5447  134.1129  159.8365 H   0  0  0  0  0  0  0  0  0  0  0  0  # atno 6907 bound_to 6896
  151.1193  133.5108  159.2610 H   0  0  0  0  0  0  0  0  0  0  0  0  # atno 6908 bound_to 6896
  151.1796  135.0364  159.8841 H   0  0  0  0  0  0  0  0  0  0  0  0  # atno 6909 bound_to 6896
  145.8211  140.8539  143.0132 H   0  0  0  0  0  0  0  0  0  0  0  0  # atno 7974 bound_to 7965
  155.0289  140.3156  155.4765 H   0  0  0  0  0  0  0  0  0  0  0  0  # atno 8008 bound_to 7997
  156.2878  140.2184  156.5352 H   0  0  0  0  0  0  0  0  0  0  0  0  # atno 8009 bound_to 7997
  154.7387  140.0475  157.0779 H   0  0  0  0  0  0  0  0  0  0  0  0  # atno 8010 bound_to 7997
  139.5015  144.6158  151.6167 H   0  0  0  0  0  0  0  0  0  0  0  0  # atno 10167 bound_to 10162
  157.2216  131.0720  151.1908 H   0  0  0  0  0  0  0  0  0  0  0  0  # atno 10718 bound_to 10713
  153.9160  135.3006  155.3448 H   0  0  0  0  0  0  0  0  0  0  0  0  # atno 10763 bound_to 10752
  154.7599  135.4939  153.9448 H   0  0  0  0  0  0  0  0  0  0  0  0  # atno 10764 bound_to 10752
  153.1167  135.6772  153.9508 H   0  0  0  0  0  0  0  0  0  0  0  0  # atno 10765 bound_to 10752
  141.0333  133.9948  157.3110 H   0  0  0  0  0  0  0  0  0  0  0  0  # atno 11005 bound_to 11000
  144.6747  140.0535  143.7478 LP  0  0  0  0  0  0  0  0  0  0  0  0  # atno 17320 bound_to 7965
  145.9673  139.2844  143.1119 LP  0  0  0  0  0  0  0  0  0  0  0  0  # atno 17321 bound_to 7965
  140.5846  143.9887  150.6288 LP  0  0  0  0  0  0  0  0  0  0  0  0  # atno 17342 bound_to 10162
  140.3047  143.3237  152.0937 LP  0  0  0  0  0  0  0  0  0  0  0  0  # atno 17343 bound_to 10162
  157.3570  130.7111  149.6477 LP  0  0  0  0  0  0  0  0  0  0  0  0  # atno 17370 bound_to 10713
  155.9682  130.4236  150.4571 LP  0  0  0  0  0  0  0  0  0  0  0  0  # atno 17371 bound_to 10713
  139.9223  135.0201  156.8108 LP  0  0  0  0  0  0  0  0  0  0  0  0  # atno 17394 bound_to 11000
  140.6368  133.9855  155.7688 LP  0  0  0  0  0  0  0  0  0  0  0  0  # atno 17395 bound_to 11000

$$$$
