AV-unprocessed.smi:1020|AV-procd|sdf|4453|dock1
  -GOLD-   22720 2423D 1   1.00000     0.00000
 Structure written by MMmdl.
 46 47  0  0  0  0  0  0  0  0  1 V2000
  146.8077  135.1856  162.4880 C   0  0  0  0  0  0  0  0  0  0  0  0
  148.3119  135.3441  162.2395 C   0  0  0  0  0  0  0  0  0  0  0  0
  149.0332  135.8955  163.4793 C   0  0  0  0  0  0  0  0  0  0  0  0
  148.4615  136.2355  161.1426 O   0  0  0  0  0  0  0  0  0  0  0  0
  147.9438  135.7505  159.9114 C   0  0  0  0  0  0  0  0  0  0  0  0
  149.0949  135.2165  159.0494 C   0  0  0  0  0  0  0  0  0  0  0  0
  149.8528  136.3011  158.3579 C   0  0  0  0  0  0  0  0  0  0  0  0
  149.3615  137.4346  157.8634 N   0  0  0  0  0  0  0  0  0  0  0  0
  150.4737  137.9766  157.2942 C   0  0  0  0  0  0  0  0  0  0  0  0
  150.4617  139.2894  156.5771 C   0  0  0  0  0  0  0  0  0  0  0  0
  151.4991  140.2425  157.1742 C   0  0  0  0  0  0  0  0  0  0  0  0
  152.6971  139.9665  157.1101 O   0  0  0  0  0  0  0  0  0  0  0  0
  151.0270  141.3598  157.7508 N   0  0  0  0  0  0  0  0  0  0  0  0
  151.8386  142.3796  158.4070 C   0  0  0  0  0  0  0  0  0  0  0  0
  152.2827  141.8997  159.8044 C   0  0  0  0  0  0  0  0  0  0  0  0
  153.0683  142.9881  160.5528 C   0  0  0  0  0  0  0  0  0  0  0  0
  152.2611  144.2920  160.6492 C   0  0  0  0  0  0  0  0  0  0  0  0
  151.8242  144.7774  159.2580 C   0  0  0  0  0  0  0  0  0  0  0  0
  151.0355  143.6900  158.5101 C   0  0  0  0  0  0  0  0  0  0  0  0
  151.5883  137.2628  157.4082 N   0  0  0  0  0  0  0  0  0  0  0  0
  151.1734  136.1237  158.1129 O   0  0  0  0  0  0  0  0  0  0  0  0
  146.6135  134.5039  163.3162 H   0  0  0  0  0  0  0  0  0  0  0  0
  146.3125  134.7826  161.6053 H   0  0  0  0  0  0  0  0  0  0  0  0
  146.3409  136.1425  162.7236 H   0  0  0  0  0  0  0  0  0  0  0  0
  148.7160  134.3626  161.9854 H   0  0  0  0  0  0  0  0  0  0  0  0
  148.8802  135.2441  164.3402 H   0  0  0  0  0  0  0  0  0  0  0  0
  148.6613  136.8863  163.7420 H   0  0  0  0  0  0  0  0  0  0  0  0
  150.1082  135.9747  163.3202 H   0  0  0  0  0  0  0  0  0  0  0  0
  147.2179  134.9560  160.0839 H   0  0  0  0  0  0  0  0  0  0  0  0
  147.4294  136.5542  159.3819 H   0  0  0  0  0  0  0  0  0  0  0  0
  149.7882  134.6468  159.6692 H   0  0  0  0  0  0  0  0  0  0  0  0
  148.7085  134.5268  158.2985 H   0  0  0  0  0  0  0  0  0  0  0  0
  150.6726  139.1268  155.5193 H   0  0  0  0  0  0  0  0  0  0  0  0
  149.4703  139.7409  156.6376 H   0  0  0  0  0  0  0  0  0  0  0  0
  150.0273  141.5036  157.7545 H   0  0  0  0  0  0  0  0  0  0  0  0
  152.7260  142.5715  157.8005 H   0  0  0  0  0  0  0  0  0  0  0  0
  151.4072  141.6186  160.3917 H   0  0  0  0  0  0  0  0  0  0  0  0
  152.8980  141.0033  159.7180 H   0  0  0  0  0  0  0  0  0  0  0  0
  153.3288  142.6367  161.5516 H   0  0  0  0  0  0  0  0  0  0  0  0
  154.0101  143.1782  160.0363 H   0  0  0  0  0  0  0  0  0  0  0  0
  151.3812  144.1320  161.2736 H   0  0  0  0  0  0  0  0  0  0  0  0
  152.8550  145.0621  161.1425 H   0  0  0  0  0  0  0  0  0  0  0  0
  151.2169  145.6781  159.3526 H   0  0  0  0  0  0  0  0  0  0  0  0
  152.7032  145.0567  158.6755 H   0  0  0  0  0  0  0  0  0  0  0  0
  150.7733  144.0477  157.5137 H   0  0  0  0  0  0  0  0  0  0  0  0
  150.0938  143.5070  159.0301 H   0  0  0  0  0  0  0  0  0  0  0  0
  1  2  1  0  0  0  0
  1 22  1  0  0  0  0
  1 23  1  0  0  0  0
  1 24  1  0  0  0  0
  2  3  1  0  0  0  0
  2  4  1  0  0  0  0
  2 25  1  0  0  0  0
  3 26  1  0  0  0  0
  3 27  1  0  0  0  0
  3 28  1  0  0  0  0
  4  5  1  0  0  0  0
  5  6  1  0  0  0  0
  5 29  1  0  0  0  0
  5 30  1  0  0  0  0
  6  7  1  0  0  0  0
  6 31  1  0  0  0  0
  6 32  1  0  0  0  0
  7 21  1  0  0  0  0
  7  8  2  0  0  0  0
  8  9  1  0  0  0  0
  9 10  1  0  0  0  0
  9 20  2  0  0  0  0
 10 11  1  0  0  0  0
 10 33  1  0  0  0  0
 10 34  1  0  0  0  0
 11 12  2  0  0  0  0
 11 13  1  0  0  0  0
 13 14  1  0  0  0  0
 13 35  1  0  0  0  0
 14 19  1  0  0  0  0
 14 15  1  0  0  0  0
 14 36  1  0  0  0  0
 15 16  1  0  0  0  0
 15 37  1  0  0  0  0
 15 38  1  0  0  0  0
 16 17  1  0  0  0  0
 16 39  1  0  0  0  0
 16 40  1  0  0  0  0
 17 18  1  0  0  0  0
 17 41  1  0  0  0  0
 17 42  1  0  0  0  0
 18 19  1  0  0  0  0
 18 43  1  0  0  0  0
 18 44  1  0  0  0  0
 19 45  1  0  0  0  0
 19 46  1  0  0  0  0
 20 21  1  0  0  0  0
M  END
> <s_m_source_file>
AV-unprocessed.smi

> <i_m_source_file_index>
1020

> <i_lp_mmshare_version>
43012

> <i_f3d_flags>
0

> <s_epik_input>
W0NIM11bQ0hdKFtDSDNdKU9bQ0gyXVtDSDJdYzFuYyhubzEpW0NIMl1DKD1PKVtOSF1bQ0hdMltDSDJdW0NIMl1bQ0gyXVtDSDJdW0NIMl0y

> <s_epik_cmdline>
J2VwaWtfcHl0aG9uJywgJy1waCcsICc3LjAnLCAnLXRuJywgJzgnLCAnLW1hJywgJzIwMCcsICctbWV0YWxfYmluZGluZycsICctaW1hZScsICc8aW5maWxlLm1hZT4nLCAnLW9tYWUnLCAnPG91dGZpbGUubWFlPic=

> <r_lp_tautomer_probability>
1

> <r_epik_Ionization_Penalty>
6.23671e-08

> <r_epik_Ionization_Penalty_Charging>
0

> <r_epik_Ionization_Penalty_Neutral>
6.23671e-08

> <r_epik_State_Penalty>
-0

> <r_epik_Charging_Adjusted_Penalty>
0

> <i_epik_Tot_Q>
0

> <i_epik_Tot_abs_Q>
0

> <r_epik_Metal_State_Penalty>
-0

> <b_epik_Metal_Only>
0

> <s_lp_Force_Field>
OPLS_2005

> <r_lp_Energy>
5.58856

> <b_lp_Chiralities_Consistent>
1

> <s_lp_Variant>
AV-unprocessed.smi:1020-1

> <Gold.Version>
5.8.1

> <Gold.Id.Protein>
6NUR|6NUR_protein|mol2

> <Gold.PLP.Fitness>
49.2479

> <Gold.PLP.PLP>
-39.6756

> <Gold.PLP.part.hbond>
-4.0000

> <Gold.PLP.part.metal>
0.0000

> <Gold.PLP.part.buried>
-4.8498

> <Gold.PLP.part.nonpolar>
-31.2769

> <Gold.PLP.part.repulsive>
0.0552

> <Gold.PLP.ligand.clash>
0.0000

> <Gold.PLP.ligand.torsion>
1.0264

> <Gold.PLP.Chemscore.Hbond>
3.8160

> <Gold.PLP.Chemscore.CHOScore>
0.0000

> <Gold.PLP.Chemscore.Metal>
0.0000

> <Gold.Chemscore.Hbonds>
donor molecule, donor type, donor heavy atom, donor atom, acceptor molecule, acceptor atom, score
      P1  H  6896  6908       L1    21  0.02
      P1  H  6931  6943       L1     4  0.52
      P1  H  7997  8009       L1    12  1.00

> <Gold.PLP.Chemscore.Internal.Correction>
0.1771

> <Gold.Rescore>
     Score         DG    S(hbond)    S(metal)    S(lipo)     H(rot)  DE(clash)    DE(int)     intcor
     20.03     -21.63       2.82        0.00     103.48       2.10       0.32       1.27       ----

> <Gold.Chemscore.Fitness>
20.0348

> <Gold.Chemscore.DG>
-21.6252

> <Gold.Chemscore.ZeroCoef>
-5.4800

> <Gold.Chemscore.Hbond>
2.8171

> <Gold.Chemscore.Metal>
0.0000

> <Gold.Chemscore.Lipo>
103.4826

> <Gold.Chemscore.Internal_Hbond>
0.0000

> <Gold.Chemscore.DEClash>
0.3200

> <Gold.Chemscore.DEInternal>
1.2704

> <Gold.Chemscore.Rot>
2.0982

> <Gold.Chemscore.Internal.Correction>
   9.000000E+99

> <Gold.Chemscore.Hbonds>
donor molecule, donor type, donor heavy atom, donor atom, acceptor molecule, acceptor atom, score
      P1  H  6931  6943       L1     4  0.36
      P1  H  7997  8009       L1    12  0.99

> <Gold.Chemscore.Hbond.Weighted>
-9.4091

> <Gold.Chemscore.Metal.Weighted>
-0.0000

> <Gold.Chemscore.Lipo.Weighted>
-12.1075

> <Gold.Chemscore.Internal_Hbond.Weighted>
0.0000

> <Gold.Chemscore.DEClash.Weighted>
0.3200

> <Gold.Chemscore.DEInternal.Weighted>
1.2704

> <Gold.Chemscore.Rot.Weighted>
5.3713

> <Gold.Chemscore.Internal.Correction.Weighted>
   9.000000E+99

> <Gold.Protein.RotatedTorsions>
[ 6907 6896 6895 6894 ] final -159.01 input  -60.11 | X-H torsion
[ 7974 7965 7964 7962 ] final  -42.36 input  175.53 | X-H torsion
[ 8008 7997 7996 7995 ] final -175.48 input   59.86 | X-H torsion
[ 10167 10162 10161 10158 ] final   75.42 input  -65.29 | X-H torsion
[ 10718 10713 10712 10709 ] final   92.33 input   66.30 | X-H torsion
[ 10763 10752 10751 10750 ] final -160.70 input  -60.55 | X-H torsion
[ 11005 11000 10999 10996 ] final  -24.39 input  -57.11 | X-H torsion

> <Gold.Protein.ActiveResidues>
 VAL166  LYS551  ARG553  GLY616  TRP617  ASP618  TYR619  PRO620  LYS621  CYS622 
 ASP623  PHE694  ASN695  SER759  ASP760  ASP761  ALA762  ILE779  LEU786  VAL792 
 PHE793  MET794  SER795  GLU796  ALA797  LYS798  CYS799  TRP800  GLU811  SER814 

> <Gold.Protein.RotatedAtoms>
  151.3270  133.4016  159.2659 H   0  0  0  0  0  0  0  0  0  0  0  0  # atno 6907 bound_to 6896
  150.9987  134.9305  159.7951 H   0  0  0  0  0  0  0  0  0  0  0  0  # atno 6908 bound_to 6896
  152.5269  134.3235  159.9209 H   0  0  0  0  0  0  0  0  0  0  0  0  # atno 6909 bound_to 6896
  146.0123  140.6949  142.9218 H   0  0  0  0  0  0  0  0  0  0  0  0  # atno 7974 bound_to 7965
  155.9830  140.1185  157.0708 H   0  0  0  0  0  0  0  0  0  0  0  0  # atno 8008 bound_to 7997
  154.4188  140.1140  156.5530 H   0  0  0  0  0  0  0  0  0  0  0  0  # atno 8009 bound_to 7997
  155.6445  140.3473  155.4728 H   0  0  0  0  0  0  0  0  0  0  0  0  # atno 8010 bound_to 7997
  140.0032  144.5670  150.7720 H   0  0  0  0  0  0  0  0  0  0  0  0  # atno 10167 bound_to 10162
  157.6959  131.0439  150.3865 H   0  0  0  0  0  0  0  0  0  0  0  0  # atno 10718 bound_to 10713
  154.7368  135.3059  154.8797 H   0  0  0  0  0  0  0  0  0  0  0  0  # atno 10763 bound_to 10752
  153.9624  135.6751  153.4749 H   0  0  0  0  0  0  0  0  0  0  0  0  # atno 10764 bound_to 10752
  153.0970  135.4931  154.8720 H   0  0  0  0  0  0  0  0  0  0  0  0  # atno 10765 bound_to 10752
  140.8841  133.7633  156.0338 H   0  0  0  0  0  0  0  0  0  0  0  0  # atno 11005 bound_to 11000
  144.6957  140.3420  143.7197 LP  0  0  0  0  0  0  0  0  0  0  0  0  # atno 17320 bound_to 7965
  145.7323  139.1740  143.2423 LP  0  0  0  0  0  0  0  0  0  0  0  0  # atno 17321 bound_to 7965
  140.7411  143.2813  151.3591 LP  0  0  0  0  0  0  0  0  0  0  0  0  # atno 17342 bound_to 10162
  139.6257  144.0819  152.2432 LP  0  0  0  0  0  0  0  0  0  0  0  0  # atno 17343 bound_to 10162
  156.4273  130.3965  149.6784 LP  0  0  0  0  0  0  0  0  0  0  0  0  # atno 17370 bound_to 10713
  156.4014  130.7677  151.2684 LP  0  0  0  0  0  0  0  0  0  0  0  0  # atno 17371 bound_to 10713
  140.8426  134.3049  157.5307 LP  0  0  0  0  0  0  0  0  0  0  0  0  # atno 17394 bound_to 11000
  139.8722  134.9424  156.3825 LP  0  0  0  0  0  0  0  0  0  0  0  0  # atno 17395 bound_to 11000

$$$$
