AV-unprocessed.smi:1406|AV-procd|sdf|5712|dock2
  -GOLD-   22720 5343D 1   1.00000     0.00000
 Structure written by MMmdl.
 41 43  0  0  0  0  0  0  0  0  2 V2000
  144.2802  136.1592  157.0297 C   0  0  0  0  0  0  0  0  0  0  0  0
  144.2269  134.9431  156.0824 C   0  0  1  0  0  0  0  0  0  0  0  0
  143.9298  135.3328  154.6205 C   0  0  0  0  0  0  0  0  0  0  0  0
  143.9465  136.5129  154.2682 O   0  0  0  0  0  0  0  0  0  0  0  0
  143.6331  134.3326  153.7740 N   0  0  0  0  0  0  0  0  0  0  0  0
  143.3302  134.4989  152.3557 C   0  0  1  0  0  0  0  0  0  0  0  0
  144.1929  135.5696  151.6752 C   0  0  0  0  0  0  0  0  0  0  0  0
  144.3553  135.0883  150.2225 C   0  0  0  0  0  0  0  0  0  0  0  0
  143.6464  133.7918  150.1350 N   0  3  1  0  0  0  0  0  0  0  0  0
  144.1100  132.8545  149.0799 C   0  0  0  0  0  0  0  0  0  0  0  0
  145.3931  132.1039  149.4741 C   0  0  0  0  0  0  0  0  0  0  0  0
  145.2201  131.4113  150.8297 C   0  0  0  0  0  0  0  0  0  0  0  0
  144.8506  132.4513  151.8923 C   0  0  0  0  0  0  0  0  0  0  0  0
  143.5725  133.2399  151.5066 C   0  0  1  0  0  0  0  0  0  0  0  0
  145.4392  134.1366  156.1863 N   0  0  0  0  0  0  0  0  0  0  0  0
  145.7682  132.9973  155.5734 C   0  0  0  0  0  0  0  0  0  0  0  0
  146.9805  132.5543  155.8751 N   0  0  0  0  0  0  0  0  0  0  0  0
  147.3735  133.5360  156.7402 C   0  0  0  0  0  0  0  0  0  0  0  0
  146.4915  134.5118  156.9556 N   0  0  0  0  0  0  0  0  0  0  0  0
  143.3361  136.7050  157.0293 H   0  0  0  0  0  0  0  0  0  0  0  0
  145.0679  136.8592  156.7476 H   0  0  0  0  0  0  0  0  0  0  0  0
  144.4696  135.8444  158.0563 H   0  0  0  0  0  0  0  0  0  0  0  0
  143.3967  134.3137  156.4060 H   0  0  0  0  0  0  0  0  0  0  0  0
  143.6365  133.3895  154.1349 H   0  0  0  0  0  0  0  0  0  0  0  0
  142.2848  134.7962  152.2466 H   0  0  0  0  0  0  0  0  0  0  0  0
  143.7302  136.5555  151.7340 H   0  0  0  0  0  0  0  0  0  0  0  0
  145.1735  135.6400  152.1487 H   0  0  0  0  0  0  0  0  0  0  0  0
  143.9297  135.7947  149.5090 H   0  0  0  0  0  0  0  0  0  0  0  0
  145.4133  134.9726  149.9851 H   0  0  0  0  0  0  0  0  0  0  0  0
  143.3134  132.1310  148.9028 H   0  0  0  0  0  0  0  0  0  0  0  0
  144.2514  133.3939  148.1428 H   0  0  0  0  0  0  0  0  0  0  0  0
  145.6409  131.3672  148.7093 H   0  0  0  0  0  0  0  0  0  0  0  0
  146.2356  132.7948  149.5176 H   0  0  0  0  0  0  0  0  0  0  0  0
  144.4419  130.6498  150.7655 H   0  0  0  0  0  0  0  0  0  0  0  0
  146.1404  130.8979  151.1101 H   0  0  0  0  0  0  0  0  0  0  0  0
  144.7099  131.9542  152.8526 H   0  0  0  0  0  0  0  0  0  0  0  0
  145.6909  133.1343  152.0229 H   0  0  0  0  0  0  0  0  0  0  0  0
  142.7145  132.5690  151.5694 H   0  0  0  0  0  0  0  0  0  0  0  0
  145.1104  132.4847  154.8867 H   0  0  0  0  0  0  0  0  0  0  0  0
  148.3413  133.5353  157.2201 H   0  0  0  0  0  0  0  0  0  0  0  0
  142.6960  134.0362  149.8951 H   0  0  0  0  0  0  0  0  0  0  0  0
  1  2  1  0  0  0  0
  1 20  1  0  0  0  0
  1 21  1  0  0  0  0
  1 22  1  0  0  0  0
  2  3  1  0  0  0  0
  2 15  1  0  0  0  0
  2 23  1  0  0  0  0
  3  4  2  0  0  0  0
  3  5  1  0  0  0  0
  5  6  1  0  0  0  0
  5 24  1  0  0  0  0
  6 14  1  0  0  0  0
  6  7  1  0  0  0  0
  6 25  1  0  0  0  0
  7  8  1  0  0  0  0
  7 26  1  0  0  0  0
  7 27  1  0  0  0  0
  8  9  1  0  0  0  0
  8 28  1  0  0  0  0
  8 29  1  0  0  0  0
  9 14  1  0  0  0  0
  9 10  1  0  0  0  0
  9 41  1  0  0  0  0
 10 11  1  0  0  0  0
 10 30  1  0  0  0  0
 10 31  1  0  0  0  0
 11 12  1  0  0  0  0
 11 32  1  0  0  0  0
 11 33  1  0  0  0  0
 12 13  1  0  0  0  0
 12 34  1  0  0  0  0
 12 35  1  0  0  0  0
 13 14  1  0  0  0  0
 13 36  1  0  0  0  0
 13 37  1  0  0  0  0
 14 38  1  0  0  0  0
 15 19  1  0  0  0  0
 15 16  1  0  0  0  0
 16 17  2  0  0  0  0
 16 39  1  0  0  0  0
 17 18  1  0  0  0  0
 18 19  2  0  0  0  0
 18 40  1  0  0  0  0
M  CHG  1   9   1
M  END
> <s_m_source_file>
AV-unprocessed.smi

> <i_m_source_file_index>
1406

> <i_lp_mmshare_version>
43012

> <i_f3d_flags>
0

> <s_epik_input>
bjFbY0hdbltjSF1uMVtDQEhdKFtDSDNdKUMoPU8pW05IXVtDQEhdKFtDSDJdW0NIMl0yKVtDQEBIXShOMjMpW0NIMl1bQ0gyXVtDSDJdW0NIMl0z

> <s_epik_cmdline>
J2VwaWtfcHl0aG9uJywgJy1waCcsICc3LjAnLCAnLXRuJywgJzgnLCAnLW1hJywgJzIwMCcsICctbWV0YWxfYmluZGluZycsICctaW1hZScsICc8aW5maWxlLm1hZT4nLCAnLW9tYWUnLCAnPG91dGZpbGUubWFlPic=

> <r_lp_tautomer_probability>
1

> <r_epik_Ionization_Penalty>
0.00197066

> <r_epik_Ionization_Penalty_Charging>
0.00196223

> <r_epik_Ionization_Penalty_Neutral>
8.43107e-06

> <r_epik_State_Penalty>
0.00133866

> <r_epik_Charging_Adjusted_Penalty>
0.00330089

> <i_epik_Tot_Q>
1

> <i_epik_Tot_abs_Q>
1

> <r_epik_Metal_State_Penalty>
-0

> <b_epik_Metal_Only>
0

> <s_lp_Force_Field>
OPLS_2005

> <r_lp_Energy>
42.4798

> <b_lp_Chiralities_Consistent>
1

> <s_lp_Variant>
AV-unprocessed.smi:1406-4

> <Gold.Version>
5.8.1

> <Gold.Id.Protein>
6NUR|6NUR_protein|mol2

> <Gold.PLP.Fitness>
37.4654

> <Gold.PLP.PLP>
-26.3114

> <Gold.PLP.part.hbond>
-2.0000

> <Gold.PLP.part.metal>
0.0000

> <Gold.PLP.part.buried>
-3.7135

> <Gold.PLP.part.nonpolar>
-20.1511

> <Gold.PLP.part.repulsive>
0.0879

> <Gold.PLP.ligand.clash>
0.0000

> <Gold.PLP.ligand.torsion>
0.4748

> <Gold.PLP.Chemscore.Hbond>
3.0000

> <Gold.PLP.Chemscore.CHOScore>
1.0000

> <Gold.PLP.Chemscore.Metal>
0.0000

> <Gold.Chemscore.Hbonds>
donor molecule, donor type, donor heavy atom, donor atom, acceptor molecule, acceptor atom, score
      L1  H     5    24       P1 10957  1.00
      L1  H     9    41       P1 10186  2.00
      L1  C    16    39       P1 10957  1.00

> <Gold.PLP.Chemscore.Internal.Correction>
0.1037

> <Gold.Rescore>
     Score         DG    S(hbond)    S(metal)    S(lipo)     H(rot)  DE(clash)    DE(int)     intcor
     13.36     -15.38       1.99        0.00      69.12       1.89       0.03       1.99       ----

> <Gold.Chemscore.Fitness>
13.3553

> <Gold.Chemscore.DG>
-15.3776

> <Gold.Chemscore.ZeroCoef>
-5.4800

> <Gold.Chemscore.Hbond>
1.9880

> <Gold.Chemscore.Metal>
0.0000

> <Gold.Chemscore.Lipo>
69.1205

> <Gold.Chemscore.Internal_Hbond>
0.0000

> <Gold.Chemscore.DEClash>
0.0275

> <Gold.Chemscore.DEInternal>
1.9948

> <Gold.Chemscore.Rot>
1.8865

> <Gold.Chemscore.Internal.Correction>
   9.000000E+99

> <Gold.Chemscore.Hbonds>
donor molecule, donor type, donor heavy atom, donor atom, acceptor molecule, acceptor atom, score
      L1  H     5    24       P1 10957  0.92
      L1  H     9    41       P1 10186  1.00

> <Gold.Chemscore.Hbond.Weighted>
-6.6400

> <Gold.Chemscore.Metal.Weighted>
-0.0000

> <Gold.Chemscore.Lipo.Weighted>
-8.0871

> <Gold.Chemscore.Internal_Hbond.Weighted>
0.0000

> <Gold.Chemscore.DEClash.Weighted>
0.0275

> <Gold.Chemscore.DEInternal.Weighted>
1.9948

> <Gold.Chemscore.Rot.Weighted>
4.8295

> <Gold.Chemscore.Internal.Correction.Weighted>
   9.000000E+99

> <Gold.Protein.RotatedTorsions>
[ 6907 6896 6895 6894 ] final -121.49 input  -60.11 | X-H torsion
[ 7974 7965 7964 7962 ] final  177.11 input  175.53 | X-H torsion
[ 8008 7997 7996 7995 ] final   22.65 input   59.86 | X-H torsion
[ 10167 10162 10161 10158 ] final  177.00 input  -65.29 | X-H torsion
[ 10718 10713 10712 10709 ] final  -75.37 input   66.30 | X-H torsion
[ 10763 10752 10751 10750 ] final   62.02 input  -60.55 | X-H torsion
[ 11005 11000 10999 10996 ] final  -32.34 input  -57.11 | X-H torsion

> <Gold.Protein.ActiveResidues>
 VAL166  LYS551  ARG553  GLY616  TRP617  ASP618  TYR619  PRO620  LYS621  CYS622 
 ASP623  PHE694  ASN695  SER759  ASP760  ASP761  ALA762  ILE779  LEU786  VAL792 
 PHE793  MET794  SER795  GLU796  ALA797  LYS798  CYS799  TRP800  GLU811  SER814 

> <Gold.Protein.RotatedAtoms>
  150.8488  133.7819  159.3032 H   0  0  0  0  0  0  0  0  0  0  0  0  # atno 6907 bound_to 6896
  151.5497  135.1066  159.9956 H   0  0  0  0  0  0  0  0  0  0  0  0  # atno 6908 bound_to 6896
  152.4536  133.7635  159.6815 H   0  0  0  0  0  0  0  0  0  0  0  0  # atno 6909 bound_to 6896
  144.7174  140.0198  143.6440 H   0  0  0  0  0  0  0  0  0  0  0  0  # atno 7974 bound_to 7965
  154.9690  140.3087  155.4996 H   0  0  0  0  0  0  0  0  0  0  0  0  # atno 8008 bound_to 7997
  156.2968  140.2287  156.4720 H   0  0  0  0  0  0  0  0  0  0  0  0  # atno 8009 bound_to 7997
  154.7894  140.0441  157.1177 H   0  0  0  0  0  0  0  0  0  0  0  0  # atno 8010 bound_to 7997
  139.5236  144.2849  152.0514 H   0  0  0  0  0  0  0  0  0  0  0  0  # atno 10167 bound_to 10162
  156.0210  130.4439  150.3032 H   0  0  0  0  0  0  0  0  0  0  0  0  # atno 10718 bound_to 10713
  152.9969  135.5480  154.6126 H   0  0  0  0  0  0  0  0  0  0  0  0  # atno 10763 bound_to 10752
  154.5443  135.2822  155.1069 H   0  0  0  0  0  0  0  0  0  0  0  0  # atno 10764 bound_to 10752
  154.2334  135.6429  153.5235 H   0  0  0  0  0  0  0  0  0  0  0  0  # atno 10765 bound_to 10752
  140.9544  133.7201  156.1270 H   0  0  0  0  0  0  0  0  0  0  0  0  # atno 11005 bound_to 11000
  146.0190  139.3235  143.0824 LP  0  0  0  0  0  0  0  0  0  0  0  0  # atno 17320 bound_to 7965
  145.8591  140.9486  143.0709 LP  0  0  0  0  0  0  0  0  0  0  0  0  # atno 17321 bound_to 7965
  140.2303  144.4376  150.6303 LP  0  0  0  0  0  0  0  0  0  0  0  0  # atno 17342 bound_to 10162
  140.6360  143.2195  151.6394 LP  0  0  0  0  0  0  0  0  0  0  0  0  # atno 17343 bound_to 10162
  157.1135  131.0227  151.3038 LP  0  0  0  0  0  0  0  0  0  0  0  0  # atno 17370 bound_to 10713
  157.4685  130.7695  149.7302 LP  0  0  0  0  0  0  0  0  0  0  0  0  # atno 17371 bound_to 10713
  140.7557  134.3995  157.5534 LP  0  0  0  0  0  0  0  0  0  0  0  0  # atno 17394 bound_to 11000
  139.8857  134.8929  156.2625 LP  0  0  0  0  0  0  0  0  0  0  0  0  # atno 17395 bound_to 11000

$$$$
