AV-unprocessed.smi:282|AV-procd|sdf|2121|dock8
  -GOLD-   2262021423D 1   1.00000     0.00000
 Structure written by MMmdl.
 65 69  0  0  0  0  0  0  0  0  2 V2000
  150.4908  140.7677  155.3821 C   0  0  0  0  0  0  0  0  0  0  0  0
  151.5765  140.8196  156.4655 C   0  0  0  0  0  0  0  0  0  0  0  0
  151.0367  141.1077  157.8878 C   0  0  2  0  0  0  0  0  0  0  0  0
  150.5747  142.5670  158.0824 C   0  0  0  0  0  0  0  0  0  0  0  0
  151.7258  143.5073  158.1392 N   0  3  1  0  0  0  0  0  0  0  0  0
  151.3232  144.9354  158.2249 C   0  0  0  0  0  0  0  0  0  0  0  0
  150.8325  145.3164  159.6348 C   0  0  0  0  0  0  0  0  0  0  0  0
  151.8824  144.9641  160.6972 C   0  0  0  0  0  0  0  0  0  0  0  0
  152.2811  143.4857  160.5875 C   0  0  0  0  0  0  0  0  0  0  0  0
  152.7536  143.1413  159.1575 C   0  0  1  0  0  0  0  0  0  0  0  0
  153.1817  141.6667  159.0197 C   0  0  0  0  0  0  0  0  0  0  0  0
  152.0235  140.7795  158.9198 N   0  0  0  0  0  0  0  0  0  0  0  0
  152.2020  139.4631  159.1994 C   0  0  0  0  0  0  0  0  0  0  0  0
  151.4875  138.5283  158.5179 N   0  0  0  0  0  0  0  0  0  0  0  0
  151.6457  137.2293  158.7882 C   0  0  0  0  0  0  0  0  0  0  0  0
  152.4559  136.6556  159.6792 N   0  0  0  0  0  0  0  0  0  0  0  0
  153.1850  137.5874  160.3577 C   0  0  0  0  0  0  0  0  0  0  0  0
  153.1166  138.9988  160.1861 C   0  0  0  0  0  0  0  0  0  0  0  0
  154.0089  139.6232  161.0496 N   0  0  0  0  0  0  0  0  0  0  0  0
  154.5664  138.6382  161.6990 C   0  0  0  0  0  0  0  0  0  0  0  0
  154.1453  137.3796  161.3332 N   0  0  0  0  0  0  0  0  0  0  0  0
  154.5960  136.1111  161.8850 C   0  0  0  0  0  0  0  0  0  0  0  0
  154.6366  136.0256  163.4451 C   0  0  0  0  0  0  0  0  0  0  0  0
  153.5013  136.8782  164.0790 C   0  0  0  0  0  0  0  0  0  0  0  0
  153.4945  136.8542  165.4931 O   0  0  0  0  0  0  0  0  0  0  0  0
  154.5620  134.5713  163.9791 C   0  0  0  0  0  0  0  0  0  0  0  0
  155.8228  133.7531  163.6491 C   0  0  0  0  0  0  0  0  0  0  0  0
  156.9711  134.3991  164.1831 O   0  0  0  0  0  0  0  0  0  0  0  0
  157.1873  135.6903  163.6288 C   0  0  0  0  0  0  0  0  0  0  0  0
  155.9869  136.6058  163.9371 C   0  0  0  0  0  0  0  0  0  0  0  0
  150.9184  140.4655  154.4260 H   0  0  0  0  0  0  0  0  0  0  0  0
  150.0183  141.7377  155.2317 H   0  0  0  0  0  0  0  0  0  0  0  0
  149.7130  140.0477  155.6381 H   0  0  0  0  0  0  0  0  0  0  0  0
  152.0866  139.8556  156.4657 H   0  0  0  0  0  0  0  0  0  0  0  0
  152.3298  141.5558  156.1843 H   0  0  0  0  0  0  0  0  0  0  0  0
  150.1581  140.4794  158.0262 H   0  0  0  0  0  0  0  0  0  0  0  0
  149.8896  142.8666  157.2902 H   0  0  0  0  0  0  0  0  0  0  0  0
  150.0038  142.6335  159.0087 H   0  0  0  0  0  0  0  0  0  0  0  0
  152.1856  145.5501  157.9638 H   0  0  0  0  0  0  0  0  0  0  0  0
  150.5566  145.1535  157.4805 H   0  0  0  0  0  0  0  0  0  0  0  0
  150.6120  146.3836  159.6730 H   0  0  0  0  0  0  0  0  0  0  0  0
  149.8959  144.8052  159.8589 H   0  0  0  0  0  0  0  0  0  0  0  0
  152.7639  145.5924  160.5634 H   0  0  0  0  0  0  0  0  0  0  0  0
  151.4963  145.1774  161.6943 H   0  0  0  0  0  0  0  0  0  0  0  0
  153.0758  143.2707  161.3027 H   0  0  0  0  0  0  0  0  0  0  0  0
  151.4383  142.8554  160.8730 H   0  0  0  0  0  0  0  0  0  0  0  0
  153.6354  143.7510  158.9548 H   0  0  0  0  0  0  0  0  0  0  0  0
  153.7966  141.5434  158.1276 H   0  0  0  0  0  0  0  0  0  0  0  0
  153.8063  141.3861  159.8693 H   0  0  0  0  0  0  0  0  0  0  0  0
  151.0379  136.5527  158.2058 H   0  0  0  0  0  0  0  0  0  0  0  0
  155.3125  138.8042  162.4620 H   0  0  0  0  0  0  0  0  0  0  0  0
  153.9537  135.3388  161.4650 H   0  0  0  0  0  0  0  0  0  0  0  0
  155.5889  135.9074  161.4824 H   0  0  0  0  0  0  0  0  0  0  0  0
  153.5996  137.9242  163.7868 H   0  0  0  0  0  0  0  0  0  0  0  0
  152.5273  136.5477  163.7165 H   0  0  0  0  0  0  0  0  0  0  0  0
  153.8396  136.0229  165.7808 H   0  0  0  0  0  0  0  0  0  0  0  0
  154.4485  134.5936  165.0640 H   0  0  0  0  0  0  0  0  0  0  0  0
  153.6783  134.0556  163.6059 H   0  0  0  0  0  0  0  0  0  0  0  0
  155.7462  132.7608  164.0937 H   0  0  0  0  0  0  0  0  0  0  0  0
  155.9369  133.6056  162.5747 H   0  0  0  0  0  0  0  0  0  0  0  0
  158.0921  136.1081  164.0703 H   0  0  0  0  0  0  0  0  0  0  0  0
  157.3752  135.6140  162.5577 H   0  0  0  0  0  0  0  0  0  0  0  0
  156.1553  137.5949  163.5093 H   0  0  0  0  0  0  0  0  0  0  0  0
  155.9536  136.7501  165.0178 H   0  0  0  0  0  0  0  0  0  0  0  0
  152.1825  143.4060  157.2442 H   0  0  0  0  0  0  0  0  0  0  0  0
  1  2  1  0  0  0  0
  1 31  1  0  0  0  0
  1 32  1  0  0  0  0
  1 33  1  0  0  0  0
  2  3  1  0  0  0  0
  2 34  1  0  0  0  0
  2 35  1  0  0  0  0
  3 12  1  0  0  0  0
  3  4  1  0  0  0  0
  3 36  1  0  0  0  0
  4  5  1  0  0  0  0
  4 37  1  0  0  0  0
  4 38  1  0  0  0  0
  5 10  1  0  0  0  0
  5  6  1  0  0  0  0
  5 65  1  0  0  0  0
  6  7  1  0  0  0  0
  6 39  1  0  0  0  0
  6 40  1  0  0  0  0
  7  8  1  0  0  0  0
  7 41  1  0  0  0  0
  7 42  1  0  0  0  0
  8  9  1  0  0  0  0
  8 43  1  0  0  0  0
  8 44  1  0  0  0  0
  9 10  1  0  0  0  0
  9 45  1  0  0  0  0
  9 46  1  0  0  0  0
 10 11  1  0  0  0  0
 10 47  1  0  0  0  0
 11 12  1  0  0  0  0
 11 48  1  0  0  0  0
 11 49  1  0  0  0  0
 12 13  1  0  0  0  0
 13 18  1  0  0  0  0
 13 14  2  0  0  0  0
 14 15  1  0  0  0  0
 15 16  2  0  0  0  0
 15 50  1  0  0  0  0
 16 17  1  0  0  0  0
 17 21  1  0  0  0  0
 17 18  2  0  0  0  0
 18 19  1  0  0  0  0
 19 20  2  0  0  0  0
 20 21  1  0  0  0  0
 20 51  1  0  0  0  0
 21 22  1  0  0  0  0
 22 23  1  0  0  0  0
 22 52  1  0  0  0  0
 22 53  1  0  0  0  0
 23 30  1  0  0  0  0
 23 24  1  0  0  0  0
 23 26  1  0  0  0  0
 24 25  1  0  0  0  0
 24 54  1  0  0  0  0
 24 55  1  0  0  0  0
 25 56  1  0  0  0  0
 26 27  1  0  0  0  0
 26 57  1  0  0  0  0
 26 58  1  0  0  0  0
 27 28  1  0  0  0  0
 27 59  1  0  0  0  0
 27 60  1  0  0  0  0
 28 29  1  0  0  0  0
 29 30  1  0  0  0  0
 29 61  1  0  0  0  0
 29 62  1  0  0  0  0
 30 63  1  0  0  0  0
 30 64  1  0  0  0  0
M  CHG  1   5   1
M  END
> <s_m_source_file>
AV-unprocessed.smi

> <i_m_source_file_index>
282

> <i_lp_mmshare_version>
43012

> <i_f3d_flags>
0

> <s_epik_input>
W0NIMl0xW0NIMl1bQ0gyXVtDSDJdW0NAQEhdKE4xMilbQ0gyXU4oW0NAQEhdKFtDSDJdMilbQ0gyXVtDSDNdKWMobltjSF1uMyljKGMzNCluW2NIXW40W0NIMl1DNShbQ0gyXVtPSF0pW0NIMl1bQ0gyXU9bQ0gyXVtDSDJdNQ==

> <s_epik_cmdline>
J2VwaWtfcHl0aG9uJywgJy1waCcsICc3LjAnLCAnLXRuJywgJzgnLCAnLW1hJywgJzIwMCcsICctbWV0YWxfYmluZGluZycsICctaW1hZScsICc8aW5maWxlLm1hZT4nLCAnLW9tYWUnLCAnPG91dGZpbGUubWFlPic=

> <r_lp_tautomer_probability>
1

> <r_epik_Ionization_Penalty>
0.00308583

> <r_epik_Ionization_Penalty_Charging>
0.00300384

> <r_epik_Ionization_Penalty_Neutral>
8.19894e-05

> <r_epik_State_Penalty>
-0

> <r_epik_Charging_Adjusted_Penalty>
0.00300384

> <i_epik_Tot_Q>
1

> <i_epik_Tot_abs_Q>
1

> <r_epik_Metal_State_Penalty>
-0

> <b_epik_Metal_Only>
0

> <s_lp_Force_Field>
OPLS_2005

> <r_lp_Energy>
61.1987

> <b_lp_Chiralities_Consistent>
1

> <s_lp_Variant>
AV-unprocessed.smi:282-5

> <Gold.Version>
5.8.1

> <Gold.Id.Protein>
6NUR|6NUR_protein|mol2

> <Gold.PLP.Fitness>
56.1442

> <Gold.PLP.PLP>
-54.6312

> <Gold.PLP.part.hbond>
-3.3825

> <Gold.PLP.part.metal>
0.0000

> <Gold.PLP.part.buried>
-7.2576

> <Gold.PLP.part.nonpolar>
-43.3980

> <Gold.PLP.part.repulsive>
0.0182

> <Gold.PLP.ligand.clash>
0.0000

> <Gold.PLP.ligand.torsion>
0.8847

> <Gold.PLP.Chemscore.Hbond>
1.0000

> <Gold.PLP.Chemscore.CHOScore>
0.0000

> <Gold.PLP.Chemscore.Metal>
0.0000

> <Gold.Chemscore.Hbonds>
donor molecule, donor type, donor heavy atom, donor atom, acceptor molecule, acceptor atom, score
      P1  H  6896  6908       L1    16  1.00
      P1  H  6924  6935       L1    25  0.07

> <Gold.PLP.Chemscore.Internal.Correction>
0.2824

> <Gold.Rescore>
     Score         DG    S(hbond)    S(metal)    S(lipo)     H(rot)  DE(clash)    DE(int)     intcor
     15.28     -19.27       0.95        0.00     139.04       2.20       1.71       2.29       ----

> <Gold.Chemscore.Fitness>
15.2769

> <Gold.Chemscore.DG>
-19.2720

> <Gold.Chemscore.ZeroCoef>
-5.4800

> <Gold.Chemscore.Hbond>
0.9482

> <Gold.Chemscore.Metal>
0.0000

> <Gold.Chemscore.Lipo>
139.0428

> <Gold.Chemscore.Internal_Hbond>
0.0000

> <Gold.Chemscore.DEClash>
1.7073

> <Gold.Chemscore.DEInternal>
2.2878

> <Gold.Chemscore.Rot>
2.2042

> <Gold.Chemscore.Internal.Correction>
   9.000000E+99

> <Gold.Chemscore.Hbonds>
donor molecule, donor type, donor heavy atom, donor atom, acceptor molecule, acceptor atom, score
      P1  H  6896  6908       L1    16  0.85
      P1  H  6924  6935       L1    25  0.06

> <Gold.Chemscore.Hbond.Weighted>
-3.1669

> <Gold.Chemscore.Metal.Weighted>
-0.0000

> <Gold.Chemscore.Lipo.Weighted>
-16.2680

> <Gold.Chemscore.Internal_Hbond.Weighted>
0.0000

> <Gold.Chemscore.DEClash.Weighted>
1.7073

> <Gold.Chemscore.DEInternal.Weighted>
2.2878

> <Gold.Chemscore.Rot.Weighted>
5.6429

> <Gold.Chemscore.Internal.Correction.Weighted>
   9.000000E+99

> <Gold.Protein.RotatedTorsions>
[ 6907 6896 6895 6894 ] final  -93.09 input  -60.11 | X-H torsion
[ 7974 7965 7964 7962 ] final    7.98 input  175.53 | X-H torsion
[ 8008 7997 7996 7995 ] final   -4.71 input   59.86 | X-H torsion
[ 10167 10162 10161 10158 ] final  -18.25 input  -65.29 | X-H torsion
[ 10718 10713 10712 10709 ] final   26.32 input   66.30 | X-H torsion
[ 10763 10752 10751 10750 ] final  169.52 input  -60.55 | X-H torsion
[ 11005 11000 10999 10996 ] final  169.37 input  -57.11 | X-H torsion

> <Gold.Protein.ActiveResidues>
 VAL166  LYS551  ARG553  GLY616  TRP617  ASP618  TYR619  PRO620  LYS621  CYS622 
 ASP623  PHE694  ASN695  SER759  ASP760  ASP761  ALA762  ILE779  LEU786  VAL792 
 PHE793  MET794  SER795  GLU796  ALA797  LYS798  CYS799  TRP800  GLU811  SER814 

> <Gold.Protein.RotatedAtoms>
  150.6917  134.2020  159.4325 H   0  0  0  0  0  0  0  0  0  0  0  0  # atno 6907 bound_to 6896
  151.9986  134.9938  160.0573 H   0  0  0  0  0  0  0  0  0  0  0  0  # atno 6908 bound_to 6896
  152.1600  133.4541  159.4893 H   0  0  0  0  0  0  0  0  0  0  0  0  # atno 6909 bound_to 6896
  146.2421  140.0001  142.8417 H   0  0  0  0  0  0  0  0  0  0  0  0  # atno 7974 bound_to 7965
  154.6114  140.2477  155.7664 H   0  0  0  0  0  0  0  0  0  0  0  0  # atno 8008 bound_to 7997
  156.2373  140.2945  156.0297 H   0  0  0  0  0  0  0  0  0  0  0  0  # atno 8009 bound_to 7997
  155.2046  140.0395  157.2913 H   0  0  0  0  0  0  0  0  0  0  0  0  # atno 8010 bound_to 7997
  140.7256  143.4935  150.9961 H   0  0  0  0  0  0  0  0  0  0  0  0  # atno 10167 bound_to 10162
  157.2053  130.6909  149.6205 H   0  0  0  0  0  0  0  0  0  0  0  0  # atno 10718 bound_to 10713
  154.3843  135.2753  155.2193 H   0  0  0  0  0  0  0  0  0  0  0  0  # atno 10763 bound_to 10752
  154.4286  135.5983  153.6058 H   0  0  0  0  0  0  0  0  0  0  0  0  # atno 10764 bound_to 10752
  152.9833  135.5990  154.4090 H   0  0  0  0  0  0  0  0  0  0  0  0  # atno 10765 bound_to 10752
  140.2971  134.7626  157.3886 H   0  0  0  0  0  0  0  0  0  0  0  0  # atno 11005 bound_to 11000
  145.1423  140.9578  143.4481 LP  0  0  0  0  0  0  0  0  0  0  0  0  # atno 17320 bound_to 7965
  145.0284  139.3362  143.6037 LP  0  0  0  0  0  0  0  0  0  0  0  0  # atno 17321 bound_to 7965
  139.8641  143.7277  152.3171 LP  0  0  0  0  0  0  0  0  0  0  0  0  # atno 17342 bound_to 10162
  139.7502  144.7536  151.0518 LP  0  0  0  0  0  0  0  0  0  0  0  0  # atno 17343 bound_to 10162
  155.9696  130.4569  150.5943 LP  0  0  0  0  0  0  0  0  0  0  0  0  # atno 17370 bound_to 10713
  157.3727  131.0768  151.1544 LP  0  0  0  0  0  0  0  0  0  0  0  0  # atno 17371 bound_to 10713
  140.1143  134.5304  155.8239 LP  0  0  0  0  0  0  0  0  0  0  0  0  # atno 17394 bound_to 11000
  141.2135  133.6735  156.6747 LP  0  0  0  0  0  0  0  0  0  0  0  0  # atno 17395 bound_to 11000

$$$$
