AV-unprocessed.smi:247|AV-procd|sdf|1889|dock8
  -GOLD-   2262020553D 1   1.00000     0.00000
 Structure written by MMmdl.
 61 65  0  0  0  0  0  0  0  0  1 V2000
  143.1483  131.9623  149.2721 O   0  0  0  0  0  0  0  0  0  0  0  0
  144.4363  132.5461  149.2767 C   0  0  0  0  0  0  0  0  0  0  0  0
  145.0361  132.7103  150.7013 C   0  0  0  0  0  0  0  0  0  0  0  0
  144.2340  133.8177  151.4558 C   0  0  0  0  0  0  0  0  0  0  0  0
  144.9755  135.0407  151.7298 N   0  0  0  0  0  0  0  0  0  0  0  0
  145.3434  136.0055  150.8186 C   0  0  0  0  0  0  0  0  0  0  0  0
  146.0051  137.0158  151.3126 N   0  0  0  0  0  0  0  0  0  0  0  0
  146.0805  136.7398  152.6722 C   0  0  0  0  0  0  0  0  0  0  0  0
  146.6617  137.4056  153.7870 C   0  0  0  0  0  0  0  0  0  0  0  0
  147.3160  138.5875  153.6640 N   0  0  0  0  0  0  0  0  0  0  0  0
  146.7723  139.4932  152.6651 C   0  0  0  0  0  0  0  0  0  0  0  0
  147.4782  140.8208  152.9131 C   0  0  0  0  0  0  0  0  0  0  0  0
  147.6633  140.8356  154.4289 C   0  0  0  0  0  0  0  0  0  0  0  0
  147.7559  139.3520  154.8375 C   0  0  2  0  0  0  0  0  0  0  0  0
  149.1678  138.9351  155.3415 C   0  0  2  0  0  0  0  0  0  0  0  0
  149.6172  139.7241  156.5956 C   0  0  0  0  0  0  0  0  0  0  0  0
  150.8779  139.2564  157.0624 O   0  0  0  0  0  0  0  0  0  0  0  0
  151.9243  139.4404  156.1172 C   0  0  0  0  0  0  0  0  0  0  0  0
  151.6270  138.6149  154.8582 C   0  0  0  0  0  0  0  0  0  0  0  0
  150.2718  139.0189  154.2627 C   0  0  1  0  0  0  0  0  0  0  0  0
  149.9850  138.1559  153.1803 O   0  0  0  0  0  0  0  0  0  0  0  0
  146.5372  136.8131  155.0039 N   0  0  0  0  0  0  0  0  0  0  0  0
  145.8915  135.6502  155.1262 C   0  0  0  0  0  0  0  0  0  0  0  0
  145.3058  134.9182  154.1773 N   0  0  0  0  0  0  0  0  0  0  0  0
  145.4307  135.5049  152.9524 C   0  0  0  0  0  0  0  0  0  0  0  0
  144.9939  131.3519  151.4483 C   0  0  0  0  0  0  0  0  0  0  0  0
  145.7800  131.3860  152.7712 C   0  0  0  0  0  0  0  0  0  0  0  0
  147.1279  131.7664  152.5224 O   0  0  0  0  0  0  0  0  0  0  0  0
  147.2464  133.0715  151.9689 C   0  0  0  0  0  0  0  0  0  0  0  0
  146.5230  133.1410  150.6102 C   0  0  0  0  0  0  0  0  0  0  0  0
  142.6139  132.4189  148.6404 H   0  0  0  0  0  0  0  0  0  0  0  0
  145.0883  131.9272  148.6597 H   0  0  0  0  0  0  0  0  0  0  0  0
  144.3514  133.5117  148.7780 H   0  0  0  0  0  0  0  0  0  0  0  0
  143.3366  134.1029  150.9097 H   0  0  0  0  0  0  0  0  0  0  0  0
  143.8764  133.4258  152.4089 H   0  0  0  0  0  0  0  0  0  0  0  0
  145.1120  135.9321  149.7659 H   0  0  0  0  0  0  0  0  0  0  0  0
  146.9491  139.1373  151.6501 H   0  0  0  0  0  0  0  0  0  0  0  0
  145.6958  139.5970  152.8103 H   0  0  0  0  0  0  0  0  0  0  0  0
  148.4507  140.8194  152.4197 H   0  0  0  0  0  0  0  0  0  0  0  0
  146.9139  141.6766  152.5425 H   0  0  0  0  0  0  0  0  0  0  0  0
  148.5229  141.4307  154.7387 H   0  0  0  0  0  0  0  0  0  0  0  0
  146.7820  141.2805  154.8925 H   0  0  0  0  0  0  0  0  0  0  0  0
  147.0528  139.2224  155.6600 H   0  0  0  0  0  0  0  0  0  0  0  0
  149.0990  137.8865  155.6366 H   0  0  0  0  0  0  0  0  0  0  0  0
  149.6789  140.7944  156.3911 H   0  0  0  0  0  0  0  0  0  0  0  0
  148.8986  139.5998  157.4050 H   0  0  0  0  0  0  0  0  0  0  0  0
  152.0330  140.4988  155.8749 H   0  0  0  0  0  0  0  0  0  0  0  0
  152.8643  139.1173  156.5648 H   0  0  0  0  0  0  0  0  0  0  0  0
  152.4208  138.7537  154.1233 H   0  0  0  0  0  0  0  0  0  0  0  0
  151.6210  137.5549  155.1172 H   0  0  0  0  0  0  0  0  0  0  0  0
  150.3507  140.0373  153.8821 H   0  0  0  0  0  0  0  0  0  0  0  0
  149.5684  138.6610  152.4985 H   0  0  0  0  0  0  0  0  0  0  0  0
  145.8391  135.2475  156.1270 H   0  0  0  0  0  0  0  0  0  0  0  0
  143.9684  131.0292  151.6241 H   0  0  0  0  0  0  0  0  0  0  0  0
  145.4385  130.5746  150.8261 H   0  0  0  0  0  0  0  0  0  0  0  0
  145.3234  132.0611  153.4952 H   0  0  0  0  0  0  0  0  0  0  0  0
  145.7791  130.3959  153.2270 H   0  0  0  0  0  0  0  0  0  0  0  0
  146.8649  133.8138  152.6701 H   0  0  0  0  0  0  0  0  0  0  0  0
  148.3051  133.2934  151.8337 H   0  0  0  0  0  0  0  0  0  0  0  0
  147.0633  132.4894  149.9231 H   0  0  0  0  0  0  0  0  0  0  0  0
  146.6049  134.1461  150.1950 H   0  0  0  0  0  0  0  0  0  0  0  0
  1  2  1  0  0  0  0
  1 31  1  0  0  0  0
  2  3  1  0  0  0  0
  2 32  1  0  0  0  0
  2 33  1  0  0  0  0
  3 30  1  0  0  0  0
  3  4  1  0  0  0  0
  3 26  1  0  0  0  0
  4  5  1  0  0  0  0
  4 34  1  0  0  0  0
  4 35  1  0  0  0  0
  5 25  1  0  0  0  0
  5  6  1  0  0  0  0
  6  7  2  0  0  0  0
  6 36  1  0  0  0  0
  7  8  1  0  0  0  0
  8 25  2  0  0  0  0
  8  9  1  0  0  0  0
  9 10  1  0  0  0  0
  9 22  2  0  0  0  0
 10 14  1  0  0  0  0
 10 11  1  0  0  0  0
 11 12  1  0  0  0  0
 11 37  1  0  0  0  0
 11 38  1  0  0  0  0
 12 13  1  0  0  0  0
 12 39  1  0  0  0  0
 12 40  1  0  0  0  0
 13 14  1  0  0  0  0
 13 41  1  0  0  0  0
 13 42  1  0  0  0  0
 14 15  1  0  0  0  0
 14 43  1  0  0  0  0
 15 20  1  0  0  0  0
 15 16  1  0  0  0  0
 15 44  1  0  0  0  0
 16 17  1  0  0  0  0
 16 45  1  0  0  0  0
 16 46  1  0  0  0  0
 17 18  1  0  0  0  0
 18 19  1  0  0  0  0
 18 47  1  0  0  0  0
 18 48  1  0  0  0  0
 19 20  1  0  0  0  0
 19 49  1  0  0  0  0
 19 50  1  0  0  0  0
 20 21  1  0  0  0  0
 20 51  1  0  0  0  0
 21 52  1  0  0  0  0
 22 23  1  0  0  0  0
 23 24  2  0  0  0  0
 23 53  1  0  0  0  0
 24 25  1  0  0  0  0
 26 27  1  0  0  0  0
 26 54  1  0  0  0  0
 26 55  1  0  0  0  0
 27 28  1  0  0  0  0
 27 56  1  0  0  0  0
 27 57  1  0  0  0  0
 28 29  1  0  0  0  0
 29 30  1  0  0  0  0
 29 58  1  0  0  0  0
 29 59  1  0  0  0  0
 30 60  1  0  0  0  0
 30 61  1  0  0  0  0
M  END
> <s_m_source_file>
AV-unprocessed.smi

> <i_m_source_file_index>
247

> <i_lp_mmshare_version>
43012

> <i_f3d_flags>
0

> <s_epik_input>
W0NIMl0xW0NIMl1PW0NIMl1bQ0gyXUMxKFtDSDJdW09IXSlbQ0gyXW4oW2NIXW4yKWMoYzIzKW5bY0hdbmMzTjRbQ0gyXVtDSDJdW0NIMl1bQ0BIXTRbQ0BASF01W0NIMl1PW0NIMl1bQ0gyXVtDQEhdNVtPSF0=

> <s_epik_cmdline>
J2VwaWtfcHl0aG9uJywgJy1waCcsICc3LjAnLCAnLXRuJywgJzgnLCAnLW1hJywgJzIwMCcsICctbWV0YWxfYmluZGluZycsICctaW1hZScsICc8aW5maWxlLm1hZT4nLCAnLW9tYWUnLCAnPG91dGZpbGUubWFlPic=

> <r_lp_tautomer_probability>
1

> <r_epik_Ionization_Penalty>
0.00362597

> <r_epik_Ionization_Penalty_Charging>
0

> <r_epik_Ionization_Penalty_Neutral>
0.00362597

> <r_epik_State_Penalty>
0.00241433

> <r_epik_Charging_Adjusted_Penalty>
0.00241433

> <i_epik_Tot_Q>
0

> <i_epik_Tot_abs_Q>
0

> <r_epik_Metal_State_Penalty>
-0

> <b_epik_Metal_Only>
0

> <s_lp_Force_Field>
OPLS_2005

> <r_lp_Energy>
60.2507

> <b_lp_Chiralities_Consistent>
1

> <s_lp_Variant>
AV-unprocessed.smi:247-2

> <Gold.Version>
5.8.1

> <Gold.Id.Protein>
6NUR|6NUR_protein|mol2

> <Gold.PLP.Fitness>
47.6533

> <Gold.PLP.PLP>
-42.3134

> <Gold.PLP.part.hbond>
-5.1676

> <Gold.PLP.part.metal>
0.0000

> <Gold.PLP.part.buried>
-1.9110

> <Gold.PLP.part.nonpolar>
-37.0819

> <Gold.PLP.part.repulsive>
2.0109

> <Gold.PLP.ligand.clash>
0.0000

> <Gold.PLP.ligand.torsion>
1.6900

> <Gold.PLP.Chemscore.Hbond>
2.0000

> <Gold.PLP.Chemscore.CHOScore>
0.8013

> <Gold.PLP.Chemscore.Metal>
0.0000

> <Gold.Chemscore.Hbonds>
donor molecule, donor type, donor heavy atom, donor atom, acceptor molecule, acceptor atom, score
      L1  H    21    52       P1  7957  1.00
      P1  H 10785 10796       L1     1  1.00
      L1  C     6    36       P1  7921  0.82
      L1  C     6    36       P1 10171  0.01

> <Gold.PLP.Chemscore.Internal.Correction>
0.3160

> <Gold.Rescore>
     Score         DG    S(hbond)    S(metal)    S(lipo)     H(rot)  DE(clash)    DE(int)     intcor
     10.92     -14.71       1.71        0.00     100.85       3.23       0.07       3.72       ----

> <Gold.Chemscore.Fitness>
10.9206

> <Gold.Chemscore.DG>
-14.7129

> <Gold.Chemscore.ZeroCoef>
-5.4800

> <Gold.Chemscore.Hbond>
1.7057

> <Gold.Chemscore.Metal>
0.0000

> <Gold.Chemscore.Lipo>
100.8464

> <Gold.Chemscore.Internal_Hbond>
0.0000

> <Gold.Chemscore.DEClash>
0.0721

> <Gold.Chemscore.DEInternal>
3.7201

> <Gold.Chemscore.Rot>
3.2278

> <Gold.Chemscore.Internal.Correction>
   9.000000E+99

> <Gold.Chemscore.Hbonds>
donor molecule, donor type, donor heavy atom, donor atom, acceptor molecule, acceptor atom, score
      L1  H    21    52       P1  7957  0.57
      P1  H 10785 10796       L1     1  0.49

> <Gold.Chemscore.Hbond.Weighted>
-5.6971

> <Gold.Chemscore.Metal.Weighted>
-0.0000

> <Gold.Chemscore.Lipo.Weighted>
-11.7990

> <Gold.Chemscore.Internal_Hbond.Weighted>
0.0000

> <Gold.Chemscore.DEClash.Weighted>
0.0721

> <Gold.Chemscore.DEInternal.Weighted>
3.7201

> <Gold.Chemscore.Rot.Weighted>
8.2633

> <Gold.Chemscore.Internal.Correction.Weighted>
   9.000000E+99

> <Gold.Protein.RotatedTorsions>
[ 6907 6896 6895 6894 ] final -145.39 input  -60.11 | X-H torsion
[ 7974 7965 7964 7962 ] final   95.43 input  175.53 | X-H torsion
[ 8008 7997 7996 7995 ] final  -75.14 input   59.86 | X-H torsion
[ 10167 10162 10161 10158 ] final -179.60 input  -65.29 | X-H torsion
[ 10718 10713 10712 10709 ] final -167.65 input   66.30 | X-H torsion
[ 10763 10752 10751 10750 ] final  149.89 input  -60.55 | X-H torsion
[ 11005 11000 10999 10996 ] final -148.41 input  -57.11 | X-H torsion

> <Gold.Protein.ActiveResidues>
 VAL166  LYS551  ARG553  GLY616  TRP617  ASP618  TYR619  PRO620  LYS621  CYS622 
 ASP623  PHE694  ASN695  SER759  ASP760  ASP761  ALA762  ILE779  LEU786  VAL792 
 PHE793  MET794  SER795  GLU796  ALA797  LYS798  CYS799  TRP800  GLU811  SER814 

> <Gold.Protein.RotatedAtoms>
  151.1271  133.5062  159.2600 H   0  0  0  0  0  0  0  0  0  0  0  0  # atno 6907 bound_to 6896
  151.1797  135.0355  159.8797 H   0  0  0  0  0  0  0  0  0  0  0  0  # atno 6908 bound_to 6896
  152.5458  134.1125  159.8418 H   0  0  0  0  0  0  0  0  0  0  0  0  # atno 6909 bound_to 6896
  145.4523  139.2292  143.3033 H   0  0  0  0  0  0  0  0  0  0  0  0  # atno 7974 bound_to 7965
  154.5391  140.0749  156.8478 H   0  0  0  0  0  0  0  0  0  0  0  0  # atno 8008 bound_to 7997
  155.3218  140.3396  155.4223 H   0  0  0  0  0  0  0  0  0  0  0  0  # atno 8009 bound_to 7997
  156.1857  140.1668  156.8177 H   0  0  0  0  0  0  0  0  0  0  0  0  # atno 8010 bound_to 7997
  139.5379  144.2446  152.0833 H   0  0  0  0  0  0  0  0  0  0  0  0  # atno 10167 bound_to 10162
  156.6855  130.9139  151.3062 H   0  0  0  0  0  0  0  0  0  0  0  0  # atno 10718 bound_to 10713
  154.0785  135.2861  155.3295 H   0  0  0  0  0  0  0  0  0  0  0  0  # atno 10763 bound_to 10752
  154.6699  135.5303  153.8129 H   0  0  0  0  0  0  0  0  0  0  0  0  # atno 10764 bound_to 10752
  153.0458  135.6555  154.0962 H   0  0  0  0  0  0  0  0  0  0  0  0  # atno 10765 bound_to 10752
  140.7615  134.3293  157.5100 H   0  0  0  0  0  0  0  0  0  0  0  0  # atno 11005 bound_to 11000
  146.2497  140.5283  142.8898 LP  0  0  0  0  0  0  0  0  0  0  0  0  # atno 17320 bound_to 7965
  144.8054  140.6289  143.6450 LP  0  0  0  0  0  0  0  0  0  0  0  0  # atno 17321 bound_to 7965
  140.1919  144.4743  150.6474 LP  0  0  0  0  0  0  0  0  0  0  0  0  # atno 17342 bound_to 10162
  140.6594  143.2247  151.5891 LP  0  0  0  0  0  0  0  0  0  0  0  0  # atno 17343 bound_to 10162
  157.7028  130.9352  150.0837 LP  0  0  0  0  0  0  0  0  0  0  0  0  # atno 17370 bound_to 10713
  156.1836  130.3651  149.9003 LP  0  0  0  0  0  0  0  0  0  0  0  0  # atno 17371 bound_to 10713
  139.8770  134.9205  156.3252 LP  0  0  0  0  0  0  0  0  0  0  0  0  # atno 17394 bound_to 11000
  140.9659  133.7358  156.0466 LP  0  0  0  0  0  0  0  0  0  0  0  0  # atno 17395 bound_to 11000

$$$$
