AV-unprocessed.smi:2492|AV-procd|sdf|9811|dock8
  -GOLD-   2272013443D 1   1.00000     0.00000
 Structure written by MMmdl.
 33 34  0  0  0  0  0  0  0  0  1 V2000
  153.5340  141.2678  161.9328 C   0  0  0  0  0  0  0  0  0  0  0  0
  152.0924  142.3659  161.9386 S   0  0  0  0  0  0  0  0  0  0  0  0
  151.9570  142.7279  160.1644 C   0  0  2  0  0  0  0  0  0  0  0  0
  153.1844  143.4553  159.6217 C   0  0  0  0  0  0  0  0  0  0  0  0
  152.6985  144.0978  158.3217 C   0  0  0  0  0  0  0  0  0  0  0  0
  151.1990  144.3875  158.5261 C   0  0  1  0  0  0  0  0  0  0  0  0
  150.4145  143.8924  157.3963 N   0  0  0  0  0  0  0  0  0  0  0  0
  150.5058  142.6689  156.8550 C   0  0  0  0  0  0  0  0  0  0  0  0
  151.2824  141.8005  157.2535 O   0  0  0  0  0  0  0  0  0  0  0  0
  149.6464  142.5262  155.8318 N   0  0  0  0  0  0  0  0  0  0  0  0
  149.4269  141.3711  155.0393 C   0  0  0  0  0  0  0  0  0  0  0  0
  148.2701  140.9857  154.5002 N   0  0  0  0  0  0  0  0  0  0  0  0
  148.6523  139.8468  153.8600 C   0  0  0  0  0  0  0  0  0  0  0  0
  147.7008  139.0082  153.0769 C   0  0  0  0  0  0  0  0  0  0  0  0
  149.9349  139.5198  153.9712 N   0  0  0  0  0  0  0  0  0  0  0  0
  150.4648  140.5466  154.7667 O   0  0  0  0  0  0  0  0  0  0  0  0
  150.7960  143.6684  159.8267 C   0  0  0  0  0  0  0  0  0  0  0  0
  153.7768  140.9644  162.9512 H   0  0  0  0  0  0  0  0  0  0  0  0
  154.3993  141.7775  161.5088 H   0  0  0  0  0  0  0  0  0  0  0  0
  153.3332  140.3719  161.3454 H   0  0  0  0  0  0  0  0  0  0  0  0
  151.8351  141.7907  159.6193 H   0  0  0  0  0  0  0  0  0  0  0  0
  153.4950  144.2356  160.3184 H   0  0  0  0  0  0  0  0  0  0  0  0
  154.0336  142.7889  159.4674 H   0  0  0  0  0  0  0  0  0  0  0  0
  153.2617  144.9995  158.0791 H   0  0  0  0  0  0  0  0  0  0  0  0
  152.8482  143.3946  157.5007 H   0  0  0  0  0  0  0  0  0  0  0  0
  151.0569  145.4614  158.6610 H   0  0  0  0  0  0  0  0  0  0  0  0
  149.7472  144.5360  156.9971 H   0  0  0  0  0  0  0  0  0  0  0  0
  149.0766  143.3265  155.6014 H   0  0  0  0  0  0  0  0  0  0  0  0
  148.2021  138.1343  152.6590 H   0  0  0  0  0  0  0  0  0  0  0  0
  147.2765  139.5874  152.2566 H   0  0  0  0  0  0  0  0  0  0  0  0
  146.8869  138.6658  153.7165 H   0  0  0  0  0  0  0  0  0  0  0  0
  149.8467  143.1368  159.7476 H   0  0  0  0  0  0  0  0  0  0  0  0
  150.6797  144.4092  160.6193 H   0  0  0  0  0  0  0  0  0  0  0  0
  1  2  1  0  0  0  0
  1 18  1  0  0  0  0
  1 19  1  0  0  0  0
  1 20  1  0  0  0  0
  2  3  1  0  0  0  0
  3 17  1  0  0  0  0
  3  4  1  0  0  0  0
  3 21  1  0  0  0  0
  4  5  1  0  0  0  0
  4 22  1  0  0  0  0
  4 23  1  0  0  0  0
  5  6  1  0  0  0  0
  5 24  1  0  0  0  0
  5 25  1  0  0  0  0
  6  7  1  0  0  0  0
  6 17  1  0  0  0  0
  6 26  1  0  0  0  0
  7  8  1  0  0  0  0
  7 27  1  0  0  0  0
  8  9  2  0  0  0  0
  8 10  1  0  0  0  0
 10 11  1  0  0  0  0
 10 28  1  0  0  0  0
 11 16  1  0  0  0  0
 11 12  2  0  0  0  0
 12 13  1  0  0  0  0
 13 14  1  0  0  0  0
 13 15  2  0  0  0  0
 14 29  1  0  0  0  0
 14 30  1  0  0  0  0
 14 31  1  0  0  0  0
 15 16  1  0  0  0  0
 17 32  1  0  0  0  0
 17 33  1  0  0  0  0
M  END
> <s_m_source_file>
AV-unprocessed.smi

> <i_m_source_file_index>
2492

> <i_lp_mmshare_version>
43012

> <i_f3d_flags>
0

> <s_epik_input>
W0NIM11TW0NAQEhdMVtDSDJdW0NIMl1bQ0BIXShbQ0gyXTEpW05IXUMoPU8pW05IXWMybmMoW0NIM10pbm8y

> <s_epik_cmdline>
J2VwaWtfcHl0aG9uJywgJy1waCcsICc3LjAnLCAnLXRuJywgJzgnLCAnLW1hJywgJzIwMCcsICctbWV0YWxfYmluZGluZycsICctaW1hZScsICc8aW5maWxlLm1hZT4nLCAnLW9tYWUnLCAnPG91dGZpbGUubWFlPic=

> <r_lp_tautomer_probability>
1

> <r_epik_Ionization_Penalty>
3.56659e-05

> <r_epik_Ionization_Penalty_Charging>
0

> <r_epik_Ionization_Penalty_Neutral>
3.56659e-05

> <r_epik_State_Penalty>
-0

> <r_epik_Charging_Adjusted_Penalty>
0

> <i_epik_Tot_Q>
0

> <i_epik_Tot_abs_Q>
0

> <r_epik_Metal_State_Penalty>
0.0146047

> <b_epik_Metal_Only>
0

> <s_lp_Force_Field>
OPLS_2005

> <r_lp_Energy>
14.5779

> <b_lp_Chiralities_Consistent>
1

> <s_lp_Variant>
AV-unprocessed.smi:2492-1

> <Gold.Version>
5.8.1

> <Gold.Id.Protein>
6NUR|6NUR_protein|mol2

> <Gold.PLP.Fitness>
41.3840

> <Gold.PLP.PLP>
-33.8494

> <Gold.PLP.part.hbond>
-2.8933

> <Gold.PLP.part.metal>
0.0000

> <Gold.PLP.part.buried>
-4.3162

> <Gold.PLP.part.nonpolar>
-28.1645

> <Gold.PLP.part.repulsive>
0.5200

> <Gold.PLP.ligand.clash>
0.0000

> <Gold.PLP.ligand.torsion>
0.3273

> <Gold.PLP.Chemscore.Hbond>
2.7280

> <Gold.PLP.Chemscore.CHOScore>
0.0000

> <Gold.PLP.Chemscore.Metal>
0.0000

> <Gold.Chemscore.Hbonds>
donor molecule, donor type, donor heavy atom, donor atom, acceptor molecule, acceptor atom, score
      L1  H     7    27       P1  8028  0.83
      L1  H    10    28       P1  8028  0.68
      P1  H  7989  7998       L1    16  0.44

> <Gold.PLP.Chemscore.Internal.Correction>
0.0053

> <Gold.Rescore>
     Score         DG    S(hbond)    S(metal)    S(lipo)     H(rot)  DE(clash)    DE(int)     intcor
     17.32     -20.95       2.56        0.00      87.25       1.28       1.29       2.34       ----

> <Gold.Chemscore.Fitness>
17.3225

> <Gold.Chemscore.DG>
-20.9495

> <Gold.Chemscore.ZeroCoef>
-5.4800

> <Gold.Chemscore.Hbond>
2.5574

> <Gold.Chemscore.Metal>
0.0000

> <Gold.Chemscore.Lipo>
87.2522

> <Gold.Chemscore.Internal_Hbond>
0.0000

> <Gold.Chemscore.DEClash>
1.2902

> <Gold.Chemscore.DEInternal>
2.3368

> <Gold.Chemscore.Rot>
1.2815

> <Gold.Chemscore.Internal.Correction>
   9.000000E+99

> <Gold.Chemscore.Hbonds>
donor molecule, donor type, donor heavy atom, donor atom, acceptor molecule, acceptor atom, score
      L1  H     7    27       P1  8028  0.24
      L1  H    10    28       P1  8028  0.64
      P1  H  7989  7998       L1    16  0.01

> <Gold.Chemscore.Hbond.Weighted>
-8.5418

> <Gold.Chemscore.Metal.Weighted>
-0.0000

> <Gold.Chemscore.Lipo.Weighted>
-10.2085

> <Gold.Chemscore.Internal_Hbond.Weighted>
0.0000

> <Gold.Chemscore.DEClash.Weighted>
1.2902

> <Gold.Chemscore.DEInternal.Weighted>
2.3368

> <Gold.Chemscore.Rot.Weighted>
3.2808

> <Gold.Chemscore.Internal.Correction.Weighted>
   9.000000E+99

> <Gold.Protein.RotatedTorsions>
[ 6907 6896 6895 6894 ] final -154.70 input  -60.11 | X-H torsion
[ 7974 7965 7964 7962 ] final    6.34 input  175.53 | X-H torsion
[ 8008 7997 7996 7995 ] final  -37.97 input   59.86 | X-H torsion
[ 10167 10162 10161 10158 ] final   72.96 input  -65.29 | X-H torsion
[ 10718 10713 10712 10709 ] final -144.11 input   66.30 | X-H torsion
[ 10763 10752 10751 10750 ] final -176.63 input  -60.55 | X-H torsion
[ 11005 11000 10999 10996 ] final -155.72 input  -57.11 | X-H torsion

> <Gold.Protein.ActiveResidues>
 VAL166  LYS551  ARG553  GLY616  TRP617  ASP618  TYR619  PRO620  LYS621  CYS622 
 ASP623  PHE694  ASN695  SER759  ASP760  ASP761  ALA762  ILE779  LEU786  VAL792 
 PHE793  MET794  SER795  GLU796  ALA797  LYS798  CYS799  TRP800  GLU811  SER814 

> <Gold.Protein.RotatedAtoms>
  151.2615  133.4300  159.2616 H   0  0  0  0  0  0  0  0  0  0  0  0  # atno 6907 bound_to 6896
  151.0527  134.9684  159.8230 H   0  0  0  0  0  0  0  0  0  0  0  0  # atno 6908 bound_to 6896
  152.5385  134.2568  159.8972 H   0  0  0  0  0  0  0  0  0  0  0  0  # atno 6909 bound_to 6896
  146.2435  140.0248  142.8395 H   0  0  0  0  0  0  0  0  0  0  0  0  # atno 7974 bound_to 7965
  154.4044  140.1590  156.2624 H   0  0  0  0  0  0  0  0  0  0  0  0  # atno 8008 bound_to 7997
  155.9025  140.3432  155.6014 H   0  0  0  0  0  0  0  0  0  0  0  0  # atno 8009 bound_to 7997
  155.7431  140.0795  157.2227 H   0  0  0  0  0  0  0  0  0  0  0  0  # atno 8010 bound_to 7997
  140.0297  144.5476  150.7517 H   0  0  0  0  0  0  0  0  0  0  0  0  # atno 10167 bound_to 10162
  156.3661  130.7763  151.1938 H   0  0  0  0  0  0  0  0  0  0  0  0  # atno 10718 bound_to 10713
  154.5700  135.2827  155.0837 H   0  0  0  0  0  0  0  0  0  0  0  0  # atno 10763 bound_to 10752
  154.2213  135.6390  153.5149 H   0  0  0  0  0  0  0  0  0  0  0  0  # atno 10764 bound_to 10752
  153.0054  135.5515  154.6320 H   0  0  0  0  0  0  0  0  0  0  0  0  # atno 10765 bound_to 10752
  140.6834  134.4119  157.5225 H   0  0  0  0  0  0  0  0  0  0  0  0  # atno 11005 bound_to 11000
  145.1208  140.9461  143.4601 LP  0  0  0  0  0  0  0  0  0  0  0  0  # atno 17320 bound_to 7965
  145.0483  139.3203  143.5942 LP  0  0  0  0  0  0  0  0  0  0  0  0  # atno 17321 bound_to 7965
  140.7307  143.2687  151.3960 LP  0  0  0  0  0  0  0  0  0  0  0  0  # atno 17342 bound_to 10162
  139.6084  144.1148  152.2274 LP  0  0  0  0  0  0  0  0  0  0  0  0  # atno 17343 bound_to 10162
  157.7479  131.0386  150.4510 LP  0  0  0  0  0  0  0  0  0  0  0  0  # atno 17370 bound_to 10713
  156.4729  130.4056  149.6507 LP  0  0  0  0  0  0  0  0  0  0  0  0  # atno 17371 bound_to 10713
  139.8945  134.8706  156.2175 LP  0  0  0  0  0  0  0  0  0  0  0  0  # atno 17394 bound_to 11000
  141.0299  133.6994  156.1412 LP  0  0  0  0  0  0  0  0  0  0  0  0  # atno 17395 bound_to 11000

$$$$
