AV-unprocessed.smi:788|AV-procd|sdf|3732|dock4
  -GOLD-   22720 1163D 1   1.00000     0.00000
 Structure written by MMmdl.
 35 36  0  0  0  0  0  0  0  0  1 V2000
  146.8180  138.0775  155.1254 C   0  0  0  0  0  0  0  0  0  0  0  0
  146.9213  139.6124  155.1467 C   0  0  1  0  0  0  0  0  0  0  0  0
  147.2852  140.1731  153.7566 C   0  0  0  0  0  0  0  0  0  0  0  0
  147.4410  141.7011  153.7889 C   0  0  0  0  0  0  0  0  0  0  0  0
  146.1808  142.3828  154.3434 C   0  0  0  0  0  0  0  0  0  0  0  0
  145.8110  141.8365  155.7377 C   0  0  1  0  0  0  0  0  0  0  0  0
  144.5821  142.5576  156.3177 C   0  0  0  0  0  0  0  0  0  0  0  0
  145.6497  140.2953  155.7111 C   0  0  1  0  0  0  0  0  0  0  0  0
  144.4667  139.9103  154.9385 N   0  0  0  0  0  0  0  0  0  0  0  0
  143.5354  139.0066  155.2844 C   0  0  0  0  0  0  0  0  0  0  0  0
  143.5808  138.3679  156.3342 O   0  0  0  0  0  0  0  0  0  0  0  0
  142.5268  138.8249  154.4049 N   0  0  0  0  0  0  0  0  0  0  0  0
  141.3854  137.9699  154.4314 C   0  0  0  0  0  0  0  0  0  0  0  0
  141.1563  137.0284  155.3621 N   0  0  0  0  0  0  0  0  0  0  0  0
  139.9708  136.3434  155.1341 N   0  0  0  0  0  0  0  0  0  0  0  0
  139.3504  136.7903  154.0387 C   0  0  0  0  0  0  0  0  0  0  0  0
  140.1555  138.0918  153.1802 S   0  0  0  0  0  0  0  0  0  0  0  0
  146.0525  137.7329  154.4295 H   0  0  0  0  0  0  0  0  0  0  0  0
  146.5707  137.6878  156.1130 H   0  0  0  0  0  0  0  0  0  0  0  0
  147.7632  137.6276  154.8211 H   0  0  0  0  0  0  0  0  0  0  0  0
  147.7435  139.8598  155.8202 H   0  0  0  0  0  0  0  0  0  0  0  0
  148.2133  139.7219  153.4046 H   0  0  0  0  0  0  0  0  0  0  0  0
  146.5183  139.8998  153.0304 H   0  0  0  0  0  0  0  0  0  0  0  0
  148.3002  141.9668  154.4058 H   0  0  0  0  0  0  0  0  0  0  0  0
  147.6541  142.0735  152.7866 H   0  0  0  0  0  0  0  0  0  0  0  0
  146.3448  143.4596  154.3962 H   0  0  0  0  0  0  0  0  0  0  0  0
  145.3510  142.2341  153.6508 H   0  0  0  0  0  0  0  0  0  0  0  0
  146.6457  142.0595  156.4040 H   0  0  0  0  0  0  0  0  0  0  0  0
  143.7107  142.4559  155.6704 H   0  0  0  0  0  0  0  0  0  0  0  0
  144.7769  143.6232  156.4404 H   0  0  0  0  0  0  0  0  0  0  0  0
  144.3185  142.1564  157.2967 H   0  0  0  0  0  0  0  0  0  0  0  0
  145.5320  139.9617  156.7436 H   0  0  0  0  0  0  0  0  0  0  0  0
  144.3427  140.3825  154.0542 H   0  0  0  0  0  0  0  0  0  0  0  0
  142.5966  139.3943  153.5741 H   0  0  0  0  0  0  0  0  0  0  0  0
  138.4125  136.3501  153.7341 H   0  0  0  0  0  0  0  0  0  0  0  0
  1  2  1  0  0  0  0
  1 18  1  0  0  0  0
  1 19  1  0  0  0  0
  1 20  1  0  0  0  0
  2  8  1  0  0  0  0
  2  3  1  0  0  0  0
  2 21  1  0  0  0  0
  3  4  1  0  0  0  0
  3 22  1  0  0  0  0
  3 23  1  0  0  0  0
  4  5  1  0  0  0  0
  4 24  1  0  0  0  0
  4 25  1  0  0  0  0
  5  6  1  0  0  0  0
  5 26  1  0  0  0  0
  5 27  1  0  0  0  0
  6  7  1  0  0  0  0
  6  8  1  0  0  0  0
  6 28  1  0  0  0  0
  7 29  1  0  0  0  0
  7 30  1  0  0  0  0
  7 31  1  0  0  0  0
  8  9  1  0  0  0  0
  8 32  1  0  0  0  0
  9 10  1  0  0  0  0
  9 33  1  0  0  0  0
 10 11  2  0  0  0  0
 10 12  1  0  0  0  0
 12 13  1  0  0  0  0
 12 34  1  0  0  0  0
 13 17  1  0  0  0  0
 13 14  2  0  0  0  0
 14 15  1  0  0  0  0
 15 16  2  0  0  0  0
 16 17  1  0  0  0  0
 16 35  1  0  0  0  0
M  END
> <s_m_source_file>
AV-unprocessed.smi

> <i_m_source_file_index>
788

> <i_lp_mmshare_version>
43012

> <i_f3d_flags>
0

> <s_epik_input>
W0NIM11bQ0BASF0xW0NIMl1bQ0gyXVtDSDJdW0NAQEhdKFtDSDNdKVtDQEhdMVtOSF1DKD1PKVtOSF1jMm5uW2NIXXMy

> <s_epik_cmdline>
J2VwaWtfcHl0aG9uJywgJy1waCcsICc3LjAnLCAnLXRuJywgJzgnLCAnLW1hJywgJzIwMCcsICctbWV0YWxfYmluZGluZycsICctaW1hZScsICc8aW5maWxlLm1hZT4nLCAnLW9tYWUnLCAnPG91dGZpbGUubWFlPic=

> <r_lp_tautomer_probability>
1

> <r_epik_Ionization_Penalty>
0.000304078

> <r_epik_Ionization_Penalty_Charging>
0

> <r_epik_Ionization_Penalty_Neutral>
0.000304078

> <r_epik_State_Penalty>
-0

> <r_epik_Charging_Adjusted_Penalty>
0

> <i_epik_Tot_Q>
0

> <i_epik_Tot_abs_Q>
0

> <r_epik_Metal_State_Penalty>
0.164801

> <b_epik_Metal_Only>
0

> <s_lp_Force_Field>
OPLS_2005

> <r_lp_Energy>
12.7564

> <b_lp_Chiralities_Consistent>
1

> <s_lp_Variant>
AV-unprocessed.smi:788-2

> <Gold.Version>
5.8.1

> <Gold.Id.Protein>
6NUR|6NUR_protein|mol2

> <Gold.PLP.Fitness>
31.5372

> <Gold.PLP.PLP>
-23.0000

> <Gold.PLP.part.hbond>
-3.3206

> <Gold.PLP.part.metal>
0.0000

> <Gold.PLP.part.buried>
-4.1096

> <Gold.PLP.part.nonpolar>
-15.2176

> <Gold.PLP.part.repulsive>
0.0827

> <Gold.PLP.ligand.clash>
0.0000

> <Gold.PLP.ligand.torsion>
0.2232

> <Gold.PLP.Chemscore.Hbond>
2.9920

> <Gold.PLP.Chemscore.CHOScore>
0.0000

> <Gold.PLP.Chemscore.Metal>
0.0000

> <Gold.Chemscore.Hbonds>
donor molecule, donor type, donor heavy atom, donor atom, acceptor molecule, acceptor atom, score
      L1  H     9    33       P1 10175  1.00
      L1  H    12    34       P1 10175  0.99
      P1  H 11000 11005       L1    15  1.00

> <Gold.PLP.Chemscore.Internal.Correction>
0.0076

> <Gold.Rescore>
     Score         DG    S(hbond)    S(metal)    S(lipo)     H(rot)  DE(clash)    DE(int)     intcor
     16.17     -17.54       2.80        0.00      44.92       1.00       0.04       1.33       ----

> <Gold.Chemscore.Fitness>
16.1718

> <Gold.Chemscore.DG>
-17.5385

> <Gold.Chemscore.ZeroCoef>
-5.4800

> <Gold.Chemscore.Hbond>
2.8034

> <Gold.Chemscore.Metal>
0.0000

> <Gold.Chemscore.Lipo>
44.9174

> <Gold.Chemscore.Internal_Hbond>
0.0000

> <Gold.Chemscore.DEClash>
0.0354

> <Gold.Chemscore.DEInternal>
1.3313

> <Gold.Chemscore.Rot>
1.0000

> <Gold.Chemscore.Internal.Correction>
   9.000000E+99

> <Gold.Chemscore.Hbonds>
donor molecule, donor type, donor heavy atom, donor atom, acceptor molecule, acceptor atom, score
      L1  H     9    33       P1 10175  0.96
      L1  H    12    34       P1 10175  0.94
      P1  H 11000 11005       L1    15  0.73

> <Gold.Chemscore.Hbond.Weighted>
-9.3632

> <Gold.Chemscore.Metal.Weighted>
-0.0000

> <Gold.Chemscore.Lipo.Weighted>
-5.2553

> <Gold.Chemscore.Internal_Hbond.Weighted>
0.0000

> <Gold.Chemscore.DEClash.Weighted>
0.0354

> <Gold.Chemscore.DEInternal.Weighted>
1.3313

> <Gold.Chemscore.Rot.Weighted>
2.5600

> <Gold.Chemscore.Internal.Correction.Weighted>
   9.000000E+99

> <Gold.Protein.RotatedTorsions>
[ 6907 6896 6895 6894 ] final  -24.14 input  -60.11 | X-H torsion
[ 7974 7965 7964 7962 ] final   25.65 input  175.53 | X-H torsion
[ 8008 7997 7996 7995 ] final  -16.98 input   59.86 | X-H torsion
[ 10167 10162 10161 10158 ] final  156.99 input  -65.29 | X-H torsion
[ 10718 10713 10712 10709 ] final   87.85 input   66.30 | X-H torsion
[ 10763 10752 10751 10750 ] final -174.22 input  -60.55 | X-H torsion
[ 11005 11000 10999 10996 ] final   76.26 input  -57.11 | X-H torsion

> <Gold.Protein.ActiveResidues>
 VAL166  LYS551  ARG553  GLY616  TRP617  ASP618  TYR619  PRO620  LYS621  CYS622 
 ASP623  PHE694  ASN695  SER759  ASP760  ASP761  ALA762  ILE779  LEU786  VAL792 
 PHE793  MET794  SER795  GLU796  ALA797  LYS798  CYS799  TRP800  GLU811  SER814 

> <Gold.Protein.RotatedAtoms>
  151.1938  135.0413  159.8843 H   0  0  0  0  0  0  0  0  0  0  0  0  # atno 6907 bound_to 6896
  152.5437  134.0927  159.8294 H   0  0  0  0  0  0  0  0  0  0  0  0  # atno 6908 bound_to 6896
  151.1058  133.5162  159.2640 H   0  0  0  0  0  0  0  0  0  0  0  0  # atno 6909 bound_to 6896
  146.1878  139.7437  142.8854 H   0  0  0  0  0  0  0  0  0  0  0  0  # atno 7974 bound_to 7965
  154.5012  140.2155  155.9343 H   0  0  0  0  0  0  0  0  0  0  0  0  # atno 8008 bound_to 7997
  156.1436  140.3175  155.8502 H   0  0  0  0  0  0  0  0  0  0  0  0  # atno 8009 bound_to 7997
  155.4073  140.0488  157.3024 H   0  0  0  0  0  0  0  0  0  0  0  0  # atno 8010 bound_to 7997
  139.4822  144.4959  151.8240 H   0  0  0  0  0  0  0  0  0  0  0  0  # atno 10167 bound_to 10162
  157.6944  131.0272  150.3186 H   0  0  0  0  0  0  0  0  0  0  0  0  # atno 10718 bound_to 10713
  154.5988  135.2852  155.0558 H   0  0  0  0  0  0  0  0  0  0  0  0  # atno 10763 bound_to 10752
  154.1831  135.6453  153.5043 H   0  0  0  0  0  0  0  0  0  0  0  0  # atno 10764 bound_to 10752
  153.0149  135.5428  154.6699 H   0  0  0  0  0  0  0  0  0  0  0  0  # atno 10765 bound_to 10752
  139.9306  134.7586  156.1374 H   0  0  0  0  0  0  0  0  0  0  0  0  # atno 11005 bound_to 11000
  145.3886  141.0369  143.3137 LP  0  0  0  0  0  0  0  0  0  0  0  0  # atno 17320 bound_to 7965
  144.8429  139.5443  143.6892 LP  0  0  0  0  0  0  0  0  0  0  0  0  # atno 17321 bound_to 7965
  140.4447  144.1938  150.5893 LP  0  0  0  0  0  0  0  0  0  0  0  0  # atno 17342 bound_to 10162
  140.4647  143.2435  151.9172 LP  0  0  0  0  0  0  0  0  0  0  0  0  # atno 17343 bound_to 10162
  156.3676  130.3858  149.7201 LP  0  0  0  0  0  0  0  0  0  0  0  0  # atno 17370 bound_to 10713
  156.4626  130.7959  151.2979 LP  0  0  0  0  0  0  0  0  0  0  0  0  # atno 17371 bound_to 10713
  141.0892  133.6721  156.2503 LP  0  0  0  0  0  0  0  0  0  0  0  0  # atno 17394 bound_to 11000
  140.6213  134.5359  157.5548 LP  0  0  0  0  0  0  0  0  0  0  0  0  # atno 17395 bound_to 11000

$$$$
