#       Name:                AV-unprocessed.smi:1278
#       Creating user name   scv26
#       Creation time:       Fri Mar 27 04:49:03 2020


#       File generated by GOLD software.
#

@<TRIPOS>MOLECULE
AV-unprocessed.smi:1278
    42    43     1
SMALL
NO_CHARGES


@<TRIPOS>ATOM
      1 ****        -0.8280   4.0266  -2.8949 C.3            1 S1                 0.0000
      2 ****        -1.1452   3.2438  -1.6129 C.3            1 S1                 0.0000
      3 ****        -2.6618   3.1288  -1.3863 C.3            1 S1                 0.0000
      4 ****        -2.9486   2.3210  -0.1147 C.3            1 S1                 0.0000
      5 ****        -2.2627   0.9470  -0.1698 C.3            1 S1                 0.0000
      6 ****        -0.7995   1.0861  -0.3875 N.4            1 S1                 1.0000
      7 ****        -0.0967  -0.2187  -0.3169 C.3            1 S1                 0.0000
      8 ****         1.3879  -0.0631   0.0639 C.3            1 S1                 0.0000
      9 ****         2.0491  -1.3591   0.1577 N.am           1 S1                 0.0000
     10 ****         1.9346  -2.2245   1.1752 C.2            1 S1                 0.0000
     11 ****         1.2347  -1.9382   2.1494 O.2            1 S1                 0.0000
     12 ****         2.6304  -3.3690   0.9953 N.pl3          1 S1                -1.0000
     13 ****         2.5787  -4.3389   1.9229 C.2            1 S1                 0.0000
     14 ****         3.5295  -4.5180   2.8470 N.2            1 S1                 0.0000
     15 ****         3.2740  -5.5891   3.7055 C.2            1 S1                 0.0000
     16 ****         2.1048  -6.2444   3.4243 C.2            1 S1                 0.0000
     17 ****         1.2864  -5.5341   2.0623 S.3            1 S1                 0.0000
     18 ****        -0.5008   1.8429  -1.6331 C.3            1 S1                 0.0000
     19 ****        -1.2258   3.5230  -3.7768 H              1 S1                 0.0000
     20 ****         0.2482   4.1363  -3.0323 H              1 S1                 0.0000
     21 ****        -1.2586   5.0279  -2.8605 H              1 S1                 0.0000
     22 ****        -0.7188   3.7990  -0.7759 H              1 S1                 0.0000
     23 ****        -3.1101   4.1198  -1.3054 H              1 S1                 0.0000
     24 ****        -3.1313   2.6428  -2.2429 H              1 S1                 0.0000
     25 ****        -2.5953   2.8722   0.7579 H              1 S1                 0.0000
     26 ****        -4.0243   2.1959   0.0127 H              1 S1                 0.0000
     27 ****        -2.4487   0.4197   0.7669 H              1 S1                 0.0000
     28 ****        -2.6948   0.3405  -0.9675 H              1 S1                 0.0000
     29 ****        -0.5811  -0.8405   0.4370 H              1 S1                 0.0000
     30 ****        -0.2022  -0.7506  -1.2639 H              1 S1                 0.0000
     31 ****         1.9240   0.5188  -0.6848 H              1 S1                 0.0000
     32 ****         1.4890   0.4754   1.0079 H              1 S1                 0.0000
     33 ****         2.6385  -1.6308  -0.6158 H              1 S1                 0.0000
     34 ****         3.9801  -5.8146   4.4905 H              1 S1                 0.0000
     35 ****         1.6781  -7.0976   3.9296 H              1 S1                 0.0000
     36 ****        -0.8576   1.2764  -2.4950 H              1 S1                 0.0000
     37 ****         0.5766   1.9508  -1.7540 H              1 S1                 0.0000
     38 ****        -0.4524   1.6357   0.3855 H              1 S1                 0.0000
     39 ****         0.7539  -1.0619   2.1794 LP             1 S1                 0.0000
     40 ****         1.1480  -2.5823   2.9094 LP             1 S1                 0.0000
     41 ****         3.1836  -3.4937   0.1717 LP             1 S1                 0.0000
     42 ****         4.3435  -3.9412   2.9161 LP             1 S1                 0.0000
@<TRIPOS>BOND
    1    1    2 1     
    2    1   19 1     
    3    1   20 1     
    4    1   21 1     
    5    2   18 1     
    6    2    3 1     
    7    2   22 1     
    8    3    4 1     
    9    3   23 1     
   10    3   24 1     
   11    4    5 1     
   12    4   25 1     
   13    4   26 1     
   14    5    6 1     
   15    5   27 1     
   16    5   28 1     
   17    6    7 1     
   18    6   18 1     
   19    6   38 1     
   20    7    8 1     
   21    7   29 1     
   22    7   30 1     
   23    8    9 1     
   24    8   31 1     
   25    8   32 1     
   26    9   10 am    
   27    9   33 1     
   28   10   11 2     
   29   10   12 1     
   30   12   13 1     
   31   13   17 1     
   32   13   14 2     
   33   14   15 1     
   34   15   16 2     
   35   15   34 1     
   36   16   17 1     
   37   16   35 1     
   38   18   36 1     
   39   18   37 1     
   40   11   39 1     
   41   11   40 1     
   42   12   41 1     
   43   14   42 1     
@<TRIPOS>SUBSTRUCTURE
      1 S1             1
@<TRIPOS>SET
LONE_PAIRS      STATIC     ATOMS    <user>   **** ""
4 39 40 41 42
DONOR_HYDROGENS      STATIC     ATOMS    <user>   **** ""
2 38 33
ATOM$BLUE        STATIC     ATOMS    COLORGROUP SYSTEM
4 39 40 41 42
ATOM$RED        STATIC     ATOMS    COLORGROUP SYSTEM
2 38 33
