AV-unprocessed.smi:1756|AV-procd|sdf|7072|dock2
  -GOLD-   22720 8293D 1   1.00000     0.00000
 Structure written by MMmdl.
 38 39  0  0  0  0  0  0  0  0  1 V2000
  146.6023  137.5395  153.5386 O   0  0  0  0  0  0  0  0  0  0  0  0
  146.0257  138.0940  152.6035 C   0  0  0  0  0  0  0  0  0  0  0  0
  146.3297  139.3290  152.1801 N   0  0  0  0  0  0  0  0  0  0  0  0
  147.3760  140.1828  152.7353 C   0  0  0  0  0  0  0  0  0  0  0  0
  147.2030  140.4089  154.2485 C   0  0  1  0  0  0  0  0  0  0  0  0
  148.4926  140.8834  154.9525 C   0  0  0  0  0  0  0  0  0  0  0  0
  148.2230  141.1945  156.4289 C   0  0  0  0  0  0  0  0  0  0  0  0
  147.0461  142.1677  156.5472 C   0  0  0  0  0  0  0  0  0  0  0  0
  145.8328  141.6301  155.7734 C   0  0  0  0  0  0  0  0  0  0  0  0
  146.1892  141.3980  154.4141 O   0  0  0  0  0  0  0  0  0  0  0  0
  145.0109  137.5791  151.8850 N   0  0  0  0  0  0  0  0  0  0  0  0
  144.3941  136.3200  151.9842 C   0  0  0  0  0  0  0  0  0  0  0  0
  144.7994  135.1991  151.3313 C   0  0  0  0  0  0  0  0  0  0  0  0
  144.1064  133.9295  151.4739 C   0  0  0  0  0  0  0  0  0  0  0  0
  144.6187  132.6628  150.8065 C   0  0  0  0  0  0  0  0  0  0  0  0
  145.8027  132.8668  150.2275 F   0  0  0  0  0  0  0  0  0  0  0  0
  144.7617  131.6987  151.7145 F   0  0  0  0  0  0  0  0  0  0  0  0
  143.7661  132.2332  149.8762 F   0  0  0  0  0  0  0  0  0  0  0  0
  143.0404  133.9165  152.2951 C   0  0  0  0  0  0  0  0  0  0  0  0
  142.6031  135.0688  152.9515 N   0  0  0  0  0  0  0  0  0  0  0  0
  143.2064  136.2747  152.8532 C   0  0  0  0  0  0  0  0  0  0  0  0
  142.7597  137.2435  153.4665 O   0  0  0  0  0  0  0  0  0  0  0  0
  141.7848  134.9809  153.5369 H   0  0  0  0  0  0  0  0  0  0  0  0
  145.7980  139.7093  151.4108 H   0  0  0  0  0  0  0  0  0  0  0  0
  148.3690  139.7848  152.5201 H   0  0  0  0  0  0  0  0  0  0  0  0
  147.3180  141.1416  152.2196 H   0  0  0  0  0  0  0  0  0  0  0  0
  146.8594  139.4780  154.7037 H   0  0  0  0  0  0  0  0  0  0  0  0
  149.2732  140.1265  154.8785 H   0  0  0  0  0  0  0  0  0  0  0  0
  148.8747  141.7760  154.4551 H   0  0  0  0  0  0  0  0  0  0  0  0
  147.9919  140.2716  156.9620 H   0  0  0  0  0  0  0  0  0  0  0  0
  149.1130  141.6143  156.8983 H   0  0  0  0  0  0  0  0  0  0  0  0
  146.7881  142.3240  157.5949 H   0  0  0  0  0  0  0  0  0  0  0  0
  147.3321  143.1406  156.1457 H   0  0  0  0  0  0  0  0  0  0  0  0
  145.4578  140.7106  156.2252 H   0  0  0  0  0  0  0  0  0  0  0  0
  145.0185  142.3541  155.8042 H   0  0  0  0  0  0  0  0  0  0  0  0
  144.6035  138.1881  151.1903 H   0  0  0  0  0  0  0  0  0  0  0  0
  145.6452  135.2184  150.6643 H   0  0  0  0  0  0  0  0  0  0  0  0
  142.4528  133.0372  152.5155 H   0  0  0  0  0  0  0  0  0  0  0  0
  1  2  2  0  0  0  0
  2  3  1  0  0  0  0
  2 11  1  0  0  0  0
  3  4  1  0  0  0  0
  3 24  1  0  0  0  0
  4  5  1  0  0  0  0
  4 25  1  0  0  0  0
  4 26  1  0  0  0  0
  5 10  1  0  0  0  0
  5  6  1  0  0  0  0
  5 27  1  0  0  0  0
  6  7  1  0  0  0  0
  6 28  1  0  0  0  0
  6 29  1  0  0  0  0
  7  8  1  0  0  0  0
  7 30  1  0  0  0  0
  7 31  1  0  0  0  0
  8  9  1  0  0  0  0
  8 32  1  0  0  0  0
  8 33  1  0  0  0  0
  9 10  1  0  0  0  0
  9 34  1  0  0  0  0
  9 35  1  0  0  0  0
 11 12  1  0  0  0  0
 11 36  1  0  0  0  0
 12 21  1  0  0  0  0
 12 13  2  0  0  0  0
 13 14  1  0  0  0  0
 13 37  1  0  0  0  0
 14 15  1  0  0  0  0
 14 19  2  0  0  0  0
 15 16  1  0  0  0  0
 15 17  1  0  0  0  0
 15 18  1  0  0  0  0
 19 20  1  0  0  0  0
 19 38  1  0  0  0  0
 20 23  1  0  0  0  0
 20 21  1  0  0  0  0
 21 22  2  0  0  0  0
M  END
> <s_m_source_file>
AV-unprocessed.smi

> <i_m_source_file_index>
1756

> <i_lp_mmshare_version>
43012

> <i_f3d_flags>
0

> <s_epik_input>
Tz1jMVtuSF1bY0hdYyhDKEYpKEYpRilbY0hdYzFbTkhdQyg9TylbTkhdW0NIMl1bQ0BASF0yW0NIMl1bQ0gyXVtDSDJdW0NIMl1PMg==

> <s_epik_cmdline>
J2VwaWtfcHl0aG9uJywgJy1waCcsICc3LjAnLCAnLXRuJywgJzgnLCAnLW1hJywgJzIwMCcsICctbWV0YWxfYmluZGluZycsICctaW1hZScsICc8aW5maWxlLm1hZT4nLCAnLW9tYWUnLCAnPG91dGZpbGUubWFlPic=

> <r_lp_tautomer_probability>
1

> <r_epik_Ionization_Penalty>
0.00380944

> <r_epik_Ionization_Penalty_Charging>
0.00379057

> <r_epik_Ionization_Penalty_Neutral>
1.88732e-05

> <r_epik_State_Penalty>
-0

> <r_epik_Charging_Adjusted_Penalty>
0.00379057

> <i_epik_Tot_Q>
0

> <i_epik_Tot_abs_Q>
0

> <r_epik_Metal_State_Penalty>
0.371099

> <b_epik_Metal_Only>
0

> <s_lp_Force_Field>
OPLS_2005

> <r_lp_Energy>
19.4394

> <b_lp_Chiralities_Consistent>
1

> <s_lp_Variant>
AV-unprocessed.smi:1756-2

> <Gold.Version>
5.8.1

> <Gold.Id.Protein>
6NUR|6NUR_protein|mol2

> <Gold.PLP.Fitness>
37.7882

> <Gold.PLP.PLP>
-34.1032

> <Gold.PLP.part.hbond>
-2.6963

> <Gold.PLP.part.metal>
0.0000

> <Gold.PLP.part.buried>
-2.7680

> <Gold.PLP.part.nonpolar>
-29.5156

> <Gold.PLP.part.repulsive>
0.5546

> <Gold.PLP.ligand.clash>
0.0000

> <Gold.PLP.ligand.torsion>
1.1236

> <Gold.PLP.Chemscore.Hbond>
1.0312

> <Gold.PLP.Chemscore.CHOScore>
0.9315

> <Gold.PLP.Chemscore.Metal>
0.0000

> <Gold.Chemscore.Hbonds>
donor molecule, donor type, donor heavy atom, donor atom, acceptor molecule, acceptor atom, score
      L1  H    11    36       P1 10171  1.00
      L1  C    19    38       P1 10957  0.73

> <Gold.PLP.Chemscore.Internal.Correction>
0.0440

> <Gold.Rescore>
     Score         DG    S(hbond)    S(metal)    S(lipo)     H(rot)  DE(clash)    DE(int)     intcor
     10.59     -11.81       1.07        0.00      52.84       1.33       0.04       1.19       ----

> <Gold.Chemscore.Fitness>
10.5865

> <Gold.Chemscore.DG>
-11.8148

> <Gold.Chemscore.ZeroCoef>
-5.4800

> <Gold.Chemscore.Hbond>
1.0685

> <Gold.Chemscore.Metal>
0.0000

> <Gold.Chemscore.Lipo>
52.8386

> <Gold.Chemscore.Internal_Hbond>
0.0000

> <Gold.Chemscore.DEClash>
0.0403

> <Gold.Chemscore.DEInternal>
1.1880

> <Gold.Chemscore.Rot>
1.3344

> <Gold.Chemscore.Internal.Correction>
   9.000000E+99

> <Gold.Chemscore.Hbonds>
donor molecule, donor type, donor heavy atom, donor atom, acceptor molecule, acceptor atom, score
      L1  H    11    36       P1 10171  0.98

> <Gold.Chemscore.Hbond.Weighted>
-3.5686

> <Gold.Chemscore.Metal.Weighted>
-0.0000

> <Gold.Chemscore.Lipo.Weighted>
-6.1821

> <Gold.Chemscore.Internal_Hbond.Weighted>
0.0000

> <Gold.Chemscore.DEClash.Weighted>
0.0403

> <Gold.Chemscore.DEInternal.Weighted>
1.1880

> <Gold.Chemscore.Rot.Weighted>
3.4160

> <Gold.Chemscore.Internal.Correction.Weighted>
   9.000000E+99

> <Gold.Protein.RotatedTorsions>
[ 6907 6896 6895 6894 ] final  -32.90 input  -60.11 | X-H torsion
[ 7974 7965 7964 7962 ] final -110.22 input  175.53 | X-H torsion
[ 8008 7997 7996 7995 ] final   22.16 input   59.86 | X-H torsion
[ 10167 10162 10161 10158 ] final -153.74 input  -65.29 | X-H torsion
[ 10718 10713 10712 10709 ] final    8.18 input   66.30 | X-H torsion
[ 10763 10752 10751 10750 ] final  131.21 input  -60.55 | X-H torsion
[ 11005 11000 10999 10996 ] final   31.16 input  -57.11 | X-H torsion

> <Gold.Protein.ActiveResidues>
 VAL166  LYS551  ARG553  GLY616  TRP617  ASP618  TYR619  PRO620  LYS621  CYS622 
 ASP623  PHE694  ASN695  SER759  ASP760  ASP761  ALA762  ILE779  LEU786  VAL792 
 PHE793  MET794  SER795  GLU796  ALA797  LYS798  CYS799  TRP800  GLU811  SER814 

> <Gold.Protein.RotatedAtoms>
  151.0726  134.9808  159.8315 H   0  0  0  0  0  0  0  0  0  0  0  0  # atno 6907 bound_to 6896
  152.5410  134.2280  159.8824 H   0  0  0  0  0  0  0  0  0  0  0  0  # atno 6908 bound_to 6896
  151.2306  133.4409  159.2637 H   0  0  0  0  0  0  0  0  0  0  0  0  # atno 6909 bound_to 6896
  145.1709  140.8925  143.3536 H   0  0  0  0  0  0  0  0  0  0  0  0  # atno 7974 bound_to 7965
  154.9615  140.3078  155.5029 H   0  0  0  0  0  0  0  0  0  0  0  0  # atno 8008 bound_to 7997
  156.2976  140.2300  156.4639 H   0  0  0  0  0  0  0  0  0  0  0  0  # atno 8009 bound_to 7997
  154.7961  140.0437  157.1226 H   0  0  0  0  0  0  0  0  0  0  0  0  # atno 8010 bound_to 7997
  139.7071  143.9168  152.2453 H   0  0  0  0  0  0  0  0  0  0  0  0  # atno 10167 bound_to 10162
  156.9478  130.5885  149.5655 H   0  0  0  0  0  0  0  0  0  0  0  0  # atno 10718 bound_to 10713
  153.7706  135.3182  155.3351 H   0  0  0  0  0  0  0  0  0  0  0  0  # atno 10763 bound_to 10752
  154.8197  135.4611  154.0747 H   0  0  0  0  0  0  0  0  0  0  0  0  # atno 10764 bound_to 10752
  153.2006  135.6922  153.8320 H   0  0  0  0  0  0  0  0  0  0  0  0  # atno 10765 bound_to 10752
  140.2868  134.2909  155.7786 H   0  0  0  0  0  0  0  0  0  0  0  0  # atno 11005 bound_to 11000
  145.0234  139.3404  143.6061 LP  0  0  0  0  0  0  0  0  0  0  0  0  # atno 17320 bound_to 7965
  146.3469  139.9543  142.8725 LP  0  0  0  0  0  0  0  0  0  0  0  0  # atno 17321 bound_to 7965
  139.9027  144.6902  150.8648 LP  0  0  0  0  0  0  0  0  0  0  0  0  # atno 17342 bound_to 10162
  140.7724  143.3502  151.2030 LP  0  0  0  0  0  0  0  0  0  0  0  0  # atno 17343 bound_to 10162
  156.0376  130.5462  150.8691 LP  0  0  0  0  0  0  0  0  0  0  0  0  # atno 17370 bound_to 10713
  157.5742  131.0946  150.9371 LP  0  0  0  0  0  0  0  0  0  0  0  0  # atno 17371 bound_to 10713
  141.2153  133.7560  156.9565 LP  0  0  0  0  0  0  0  0  0  0  0  0  # atno 17394 bound_to 11000
  140.1232  134.9404  157.2233 LP  0  0  0  0  0  0  0  0  0  0  0  0  # atno 17395 bound_to 11000

$$$$
