#       Name:                AV-unprocessed.smi:3329
#       Creating user name   scv26
#       Creation time:       Fri Mar 27 19:15:37 2020


#       File generated by GOLD software.
#

@<TRIPOS>MOLECULE
AV-unprocessed.smi:3329
    46    47     1
SMALL
NO_CHARGES


@<TRIPOS>ATOM
      1 ****        -4.0826  -0.0005   2.9628 C.3            1 S1                 0.0000
      2 ****        -3.3798   1.1766   2.3502 C.2            1 S1                 0.0000
      3 ****        -2.9920   2.3917   2.9840 C.2            1 S1                 0.0000
      4 ****        -2.3853   3.2309   2.1605 N.2            1 S1                 0.0000
      5 ****        -2.3652   2.5846   0.9757 N.pl3          1 S1                 0.0000
      6 ****        -1.7565   3.2155  -0.1819 C.3            1 S1                 0.0000
      7 ****        -0.2193   3.1722  -0.1371 C.3            1 S1                 0.0000
      8 ****         0.2465   1.7946  -0.2068 N.3            1 S1                 0.0000
      9 ****         1.7112   1.7378  -0.1810 C.3            1 S1                 0.0000
     10 ****         2.2185   0.2989  -0.2602 C.2            1 S1                 0.0000
     11 ****         2.9122  -0.1550   0.6483 O.2            1 S1                 0.0000
     12 ****         1.8649  -0.3984  -1.3541 N.am           1 S1                 0.0000
     13 ****         2.1763  -1.7927  -1.6785 C.3            1 S1                 0.0000
     14 ****         3.6966  -1.9539  -1.8779 C.3            1 S1                 0.0000
     15 ****         1.5259  -2.0966  -2.9668 C.1            1 S1                 0.0000
     16 ****         1.0161  -2.3325  -3.9789 N.1            1 S1                 0.0000
     17 ****         1.6879  -2.7829  -0.6153 C.3            1 S1                 0.0000
     18 ****         1.3926  -4.2330  -0.9289 C.3            1 S1                 0.0000
     19 ****         0.2646  -3.2913  -0.5672 C.3            1 S1                 0.0000
     20 ****        -2.9615   1.3442   1.0606 C.2            1 S1                 0.0000
     21 ****        -4.0095   0.0050   4.0506 H              1 S1                 0.0000
     22 ****        -3.6617  -0.9453   2.6183 H              1 S1                 0.0000
     23 ****        -5.1434  -0.0095   2.7116 H              1 S1                 0.0000
     24 ****        -3.1323   2.6866   4.0135 H              1 S1                 0.0000
     25 ****        -2.1275   2.7279  -1.0847 H              1 S1                 0.0000
     26 ****        -2.0969   4.2509  -0.2260 H              1 S1                 0.0000
     27 ****         0.1846   3.7368  -0.9784 H              1 S1                 0.0000
     28 ****         0.1453   3.6465   0.7755 H              1 S1                 0.0000
     29 ****        -0.1512   1.2801   0.5664 H              1 S1                 0.0000
     30 ****         2.1212   2.3013  -1.0205 H              1 S1                 0.0000
     31 ****         2.0822   2.2019   0.7343 H              1 S1                 0.0000
     32 ****         1.2940   0.0878  -2.0306 H              1 S1                 0.0000
     33 ****         3.9397  -2.9617  -2.2167 H              1 S1                 0.0000
     34 ****         4.2532  -1.7827  -0.9565 H              1 S1                 0.0000
     35 ****         4.0740  -1.2578  -2.6281 H              1 S1                 0.0000
     36 ****         2.1532  -2.6290   0.3561 H              1 S1                 0.0000
     37 ****         1.4599  -4.5642  -1.9629 H              1 S1                 0.0000
     38 ****         1.6853  -4.9734  -0.1871 H              1 S1                 0.0000
     39 ****        -0.1910  -3.4056   0.4143 H              1 S1                 0.0000
     40 ****        -0.4172  -2.9941  -1.3611 H              1 S1                 0.0000
     41 ****        -3.0334   0.6885   0.2052 H              1 S1                 0.0000
     42 ****        -2.0232   4.1394   2.3689 LP             1 S1                 0.0000
     43 ****        -0.0495   1.3817  -1.0682 LP             1 S1                 0.0000
     44 ****         3.1424   0.4173   1.4353 LP             1 S1                 0.0000
     45 ****         3.2461  -1.0964   0.5999 LP             1 S1                 0.0000
     46 ****         0.5757  -2.5363  -4.8533 LP             1 S1                 0.0000
@<TRIPOS>BOND
    1    1    2 1     
    2    1   21 1     
    3    1   22 1     
    4    1   23 1     
    5    2   20 2     
    6    2    3 1     
    7    3    4 2     
    8    3   24 1     
    9    4    5 1     
   10    5    6 1     
   11    5   20 1     
   12    6    7 1     
   13    6   25 1     
   14    6   26 1     
   15    7    8 1     
   16    7   27 1     
   17    7   28 1     
   18    8    9 1     
   19    8   29 1     
   20    9   10 1     
   21    9   30 1     
   22    9   31 1     
   23   10   11 2     
   24   10   12 am    
   25   12   13 1     
   26   12   32 1     
   27   13   14 1     
   28   13   15 1     
   29   13   17 1     
   30   14   33 1     
   31   14   34 1     
   32   14   35 1     
   33   15   16 3     
   34   17   19 1     
   35   17   18 1     
   36   17   36 1     
   37   18   19 1     
   38   18   37 1     
   39   18   38 1     
   40   19   39 1     
   41   19   40 1     
   42   20   41 1     
   43    4   42 1     
   44    8   43 1     
   45   11   44 1     
   46   11   45 1     
   47   16   46 1     
@<TRIPOS>SUBSTRUCTURE
      1 S1             1
@<TRIPOS>SET
LONE_PAIRS      STATIC     ATOMS    <user>   **** ""
5 42 43 44 45 46
DONOR_HYDROGENS      STATIC     ATOMS    <user>   **** ""
2 29 32
ATOM$BLUE        STATIC     ATOMS    COLORGROUP SYSTEM
5 42 43 44 45 46
ATOM$RED        STATIC     ATOMS    COLORGROUP SYSTEM
2 29 32
