AV-unprocessed.smi:72|AV-procd|sdf|666|dock2
  -GOLD-   2262016563D 1   1.00000     0.00000
 Structure written by MMmdl.
 29 30  0  0  0  0  0  0  0  0  1 V2000
  151.9087  136.5919  153.9599 N   0  0  0  0  0  0  0  0  0  0  0  0
  151.4753  137.7541  154.2965 C   0  0  0  0  0  0  0  0  0  0  0  0
  152.2099  138.7201  155.0008 N   0  0  0  0  0  0  0  0  0  0  0  0
  151.6409  139.8523  155.2793 C   0  0  0  0  0  0  0  0  0  0  0  0
  150.2697  140.1474  154.8932 N   0  0  0  0  0  0  0  0  0  0  0  0
  149.6333  141.4786  155.2354 C   0  0  1  0  0  0  0  0  0  0  0  0
  148.7928  141.8593  154.1865 O   0  0  0  0  0  0  0  0  0  0  0  0
  147.5988  142.4195  154.7189 C   0  0  1  0  0  0  0  0  0  0  0  0
  146.4668  142.3967  153.6767 C   0  0  0  0  0  0  0  0  0  0  0  0
  146.3979  141.1305  153.0561 O   0  0  0  0  0  0  0  0  0  0  0  0
  147.3673  141.6370  156.0204 C   0  0  1  0  0  0  0  0  0  0  0  0
  146.6989  140.4117  155.7716 O   0  0  0  0  0  0  0  0  0  0  0  0
  148.7924  141.4389  156.5309 C   0  0  1  0  0  0  0  0  0  0  0  0
  148.9508  140.2827  157.3366 O   0  0  0  0  0  0  0  0  0  0  0  0
  149.5195  139.1897  154.1679 C   0  0  0  0  0  0  0  0  0  0  0  0
  148.3651  139.3946  153.7934 O   0  0  0  0  0  0  0  0  0  0  0  0
  150.1579  138.0289  153.9042 N   0  0  0  0  0  0  0  0  0  0  0  0
  150.4438  142.2062  155.2908 H   0  0  0  0  0  0  0  0  0  0  0  0
  147.8260  143.4566  154.9736 H   0  0  0  0  0  0  0  0  0  0  0  0
  146.7652  142.2077  156.7280 H   0  0  0  0  0  0  0  0  0  0  0  0
  149.0784  142.3094  157.1228 H   0  0  0  0  0  0  0  0  0  0  0  0
  151.1972  136.0788  153.4605 H   0  0  0  0  0  0  0  0  0  0  0  0
  152.1507  140.6525  155.8170 H   0  0  0  0  0  0  0  0  0  0  0  0
  145.5114  142.5921  154.1641 H   0  0  0  0  0  0  0  0  0  0  0  0
  146.5993  143.1712  152.9209 H   0  0  0  0  0  0  0  0  0  0  0  0
  145.4912  140.9329  152.8771 H   0  0  0  0  0  0  0  0  0  0  0  0
  146.8003  139.8572  156.5303 H   0  0  0  0  0  0  0  0  0  0  0  0
  148.0994  139.8994  157.4813 H   0  0  0  0  0  0  0  0  0  0  0  0
  149.6493  137.3257  153.3890 H   0  0  0  0  0  0  0  0  0  0  0  0
  1  2  2  0  0  0  0
  1 22  1  0  0  0  0
  2 17  1  0  0  0  0
  2  3  1  0  0  0  0
  3  4  2  0  0  0  0
  4  5  1  0  0  0  0
  4 23  1  0  0  0  0
  5  6  1  0  0  0  0
  5 15  1  0  0  0  0
  6 18  1  0  0  0  0
  6 13  1  0  0  0  0
  6  7  1  0  0  0  0
  7  8  1  0  0  0  0
  8 19  1  0  0  0  0
  8  9  1  0  0  0  0
  8 11  1  0  0  0  0
  9 10  1  0  0  0  0
  9 24  1  0  0  0  0
  9 25  1  0  0  0  0
 10 26  1  0  0  0  0
 11 20  1  0  0  0  0
 11 12  1  0  0  0  0
 11 13  1  0  0  0  0
 12 27  1  0  0  0  0
 13 21  1  0  0  0  0
 13 14  1  0  0  0  0
 14 28  1  0  0  0  0
 15 16  2  0  0  0  0
 15 17  1  0  0  0  0
 17 29  1  0  0  0  0
M  END
> <s_m_source_file>
AV-unprocessed.smi

> <i_m_source_file_index>
72

> <i_lp_mmshare_version>
43012

> <i_f3d_flags>
0

> <s_epik_input>
W05IMl1jMW5bY0hdbihjKD1PKW4xKVtDQEBIXTJPW0NASF0oW0NIMl1bT0hdKVtDQEBIXShbT0hdKVtDQEhdMltPSF0=

> <s_epik_cmdline>
J2VwaWtfcHl0aG9uJywgJy1waCcsICc3LjAnLCAnLXRuJywgJzgnLCAnLW1hJywgJzIwMCcsICctbWV0YWxfYmluZGluZycsICctaW1hZScsICc8aW5maWxlLm1hZT4nLCAnLW9tYWUnLCAnPG91dGZpbGUubWFlPic=

> <r_lp_tautomer_probability>
7.17554e-07

> <r_epik_Ionization_Penalty>
0.0066451

> <r_epik_Ionization_Penalty_Charging>
0.00663793

> <r_epik_Ionization_Penalty_Neutral>
7.17052e-06

> <r_epik_State_Penalty>
0.419231

> <r_epik_Charging_Adjusted_Penalty>
0.425868

> <i_epik_Tot_Q>
0

> <i_epik_Tot_abs_Q>
0

> <r_epik_Metal_State_Penalty>
1.44144

> <b_epik_Metal_Only>
0

> <s_epik_Chemistry_Notes>
This compound contains an acetal/aminal-like group ( X-CH(R)-Y where X, Y are N, S, or O) that may be acid/base labile, releasing an aldehyde.

> <s_lp_Force_Field>
OPLS_2005

> <r_lp_Energy>
49.4218

> <b_lp_Chiralities_Consistent>
1

> <s_lp_Variant>
AV-unprocessed.smi:72-4

> <Gold.Version>
5.8.1

> <Gold.Id.Protein>
6NUR|6NUR_protein|mol2

> <Gold.PLP.Fitness>
33.7641

> <Gold.PLP.PLP>
-24.5866

> <Gold.PLP.part.hbond>
-4.5483

> <Gold.PLP.part.metal>
0.0000

> <Gold.PLP.part.buried>
1.1349

> <Gold.PLP.part.nonpolar>
-21.5248

> <Gold.PLP.part.repulsive>
1.2379

> <Gold.PLP.ligand.clash>
0.0000

> <Gold.PLP.ligand.torsion>
0.7746

> <Gold.PLP.Chemscore.Hbond>
3.5751

> <Gold.PLP.Chemscore.CHOScore>
0.0000

> <Gold.PLP.Chemscore.Metal>
0.0000

> <Gold.Chemscore.Hbonds>
donor molecule, donor type, donor heavy atom, donor atom, acceptor molecule, acceptor atom, score
      L1  H     1    22       P1  7949  0.45
      L1  H    10    26       P1 10175  1.00
      L1  H    17    29       P1  7948  1.00
      P1  H  8011  8017       L1     7  0.30
      P1  H 10752 10764       L1     1  0.86

> <Gold.PLP.Chemscore.Internal.Correction>
0.0014

> <Gold.Rescore>
     Score         DG    S(hbond)    S(metal)    S(lipo)     H(rot)  DE(clash)    DE(int)     intcor
     -0.39      -6.48       2.68        0.00      20.80       4.06       1.46       5.41       ----

> <Gold.Chemscore.Fitness>
-0.3868

> <Gold.Chemscore.DG>
-6.4847

> <Gold.Chemscore.ZeroCoef>
-5.4800

> <Gold.Chemscore.Hbond>
2.6841

> <Gold.Chemscore.Metal>
0.0000

> <Gold.Chemscore.Lipo>
20.7989

> <Gold.Chemscore.Internal_Hbond>
0.0000

> <Gold.Chemscore.DEClash>
1.4597

> <Gold.Chemscore.DEInternal>
5.4118

> <Gold.Chemscore.Rot>
4.0600

> <Gold.Chemscore.Internal.Correction>
   9.000000E+99

> <Gold.Chemscore.Hbonds>
donor molecule, donor type, donor heavy atom, donor atom, acceptor molecule, acceptor atom, score
      L1  H     1    22       P1  7949  0.19
      L1  H    10    26       P1 10175  0.30
      L1  H    17    29       P1  7948  0.77
      P1  H  8011  8017       L1     7  0.28
      P1  H 10752 10764       L1     1  0.52

> <Gold.Chemscore.Hbond.Weighted>
-8.9648

> <Gold.Chemscore.Metal.Weighted>
-0.0000

> <Gold.Chemscore.Lipo.Weighted>
-2.4335

> <Gold.Chemscore.Internal_Hbond.Weighted>
0.0000

> <Gold.Chemscore.DEClash.Weighted>
1.4597

> <Gold.Chemscore.DEInternal.Weighted>
5.4118

> <Gold.Chemscore.Rot.Weighted>
10.3936

> <Gold.Chemscore.Internal.Correction.Weighted>
   9.000000E+99

> <Gold.Protein.RotatedTorsions>
[ 6907 6896 6895 6894 ] final   25.49 input  -60.11 | X-H torsion
[ 7974 7965 7964 7962 ] final -174.35 input  175.53 | X-H torsion
[ 8008 7997 7996 7995 ] final  169.56 input   59.86 | X-H torsion
[ 10167 10162 10161 10158 ] final  116.12 input  -65.29 | X-H torsion
[ 10718 10713 10712 10709 ] final    3.96 input   66.30 | X-H torsion
[ 10763 10752 10751 10750 ] final  -65.96 input  -60.55 | X-H torsion
[ 11005 11000 10999 10996 ] final   54.05 input  -57.11 | X-H torsion

> <Gold.Protein.ActiveResidues>
 VAL166  LYS551  ARG553  GLY616  TRP617  ASP618  TYR619  PRO620  LYS621  CYS622 
 ASP623  PHE694  ASN695  SER759  ASP760  ASP761  ALA762  ILE779  LEU786  VAL792 
 PHE793  MET794  SER795  GLU796  ALA797  LYS798  CYS799  TRP800  GLU811  SER814 

> <Gold.Protein.RotatedAtoms>
  151.9732  135.0066  160.0553 H   0  0  0  0  0  0  0  0  0  0  0  0  # atno 6907 bound_to 6896
  152.1764  133.4673  159.4943 H   0  0  0  0  0  0  0  0  0  0  0  0  # atno 6908 bound_to 6896
  150.6910  134.1806  159.4290 H   0  0  0  0  0  0  0  0  0  0  0  0  # atno 6909 bound_to 6896
  144.7132  140.1484  143.6386 H   0  0  0  0  0  0  0  0  0  0  0  0  # atno 7974 bound_to 7965
  156.1446  140.1561  156.8867 H   0  0  0  0  0  0  0  0  0  0  0  0  # atno 8008 bound_to 7997
  154.5017  140.0823  156.7848 H   0  0  0  0  0  0  0  0  0  0  0  0  # atno 8009 bound_to 7997
  155.4014  140.3414  155.4259 H   0  0  0  0  0  0  0  0  0  0  0  0  # atno 8010 bound_to 7997
  139.6269  144.7109  151.2514 H   0  0  0  0  0  0  0  0  0  0  0  0  # atno 10167 bound_to 10162
  156.8855  130.5669  149.5651 H   0  0  0  0  0  0  0  0  0  0  0  0  # atno 10718 bound_to 10713
  154.3527  135.6133  153.5651 H   0  0  0  0  0  0  0  0  0  0  0  0  # atno 10763 bound_to 10752
  152.9797  135.5796  154.4724 H   0  0  0  0  0  0  0  0  0  0  0  0  # atno 10764 bound_to 10752
  154.4448  135.2851  155.1799 H   0  0  0  0  0  0  0  0  0  0  0  0  # atno 10765 bound_to 10752
  140.0717  134.5460  155.9039 H   0  0  0  0  0  0  0  0  0  0  0  0  # atno 11005 bound_to 11000
  145.9139  139.2503  143.1421 LP  0  0  0  0  0  0  0  0  0  0  0  0  # atno 17320 bound_to 7965
  145.9689  140.8776  143.0173 LP  0  0  0  0  0  0  0  0  0  0  0  0  # atno 17321 bound_to 7965
  140.7416  143.6551  150.8214 LP  0  0  0  0  0  0  0  0  0  0  0  0  # atno 17342 bound_to 10162
  140.0170  143.5582  152.2816 LP  0  0  0  0  0  0  0  0  0  0  0  0  # atno 17343 bound_to 10162
  156.0655  130.5699  150.9280 LP  0  0  0  0  0  0  0  0  0  0  0  0  # atno 17370 bound_to 10713
  157.6115  131.0936  150.8786 LP  0  0  0  0  0  0  0  0  0  0  0  0  # atno 17371 bound_to 10713
  141.2014  133.6618  156.5950 LP  0  0  0  0  0  0  0  0  0  0  0  0  # atno 17394 bound_to 11000
  140.3617  134.7682  157.4538 LP  0  0  0  0  0  0  0  0  0  0  0  0  # atno 17395 bound_to 11000

$$$$
