AV-unprocessed.smi:527|AV-procd|sdf|2815|dock5
  -GOLD-   2262023293D 1   1.00000     0.00000
 Structure written by MMmdl.
 42 43  0  0  0  0  0  0  0  0  1 V2000
  151.2949  138.6372  154.7778 C   0  0  0  0  0  0  0  0  0  0  0  0
  149.8065  138.6636  154.3865 C   0  0  2  0  0  0  0  0  0  0  0  0
  149.3280  140.1245  154.2575 C   0  0  0  0  0  0  0  0  0  0  0  0
  147.8503  140.2173  153.8552 C   0  0  0  0  0  0  0  0  0  0  0  0
  146.9632  139.4505  154.8457 C   0  0  0  0  0  0  0  0  0  0  0  0
  147.4051  137.9800  154.9904 C   0  0  1  0  0  0  0  0  0  0  0  0
  147.1222  137.2263  153.7677 N   0  0  0  0  0  0  0  0  0  0  0  0
  145.9036  136.9710  153.2701 C   0  0  0  0  0  0  0  0  0  0  0  0
  144.8697  137.4761  153.7130 O   0  0  0  0  0  0  0  0  0  0  0  0
  145.9785  136.1083  152.2393 N   0  0  0  0  0  0  0  0  0  0  0  0
  144.9614  135.4747  151.6191 C   0  0  0  0  0  0  0  0  0  0  0  0
  143.7711  135.5784  151.9209 O   0  0  0  0  0  0  0  0  0  0  0  0
  145.3581  134.5568  150.4596 C   0  0  0  0  0  0  0  0  0  0  0  0
  144.7519  133.2432  150.5846 N   0  0  0  0  0  0  0  0  0  0  0  0
  143.3954  132.9428  150.5961 C   0  0  0  0  0  0  0  0  0  0  0  0
  143.2962  131.5774  150.7410 C   0  0  0  0  0  0  0  0  0  0  0  0
  144.5705  131.0205  150.8191 N   0  0  0  0  0  0  0  0  0  0  0  0
  145.3805  132.0664  150.7175 C   0  0  0  0  0  0  0  0  0  0  0  0
  148.9039  137.8750  155.3768 C   0  0  1  0  0  0  0  0  0  0  0  0
  149.3353  136.4039  155.5461 C   0  0  0  0  0  0  0  0  0  0  0  0
  151.4474  139.0254  155.7852 H   0  0  0  0  0  0  0  0  0  0  0  0
  151.8889  139.2462  154.0956 H   0  0  0  0  0  0  0  0  0  0  0  0
  151.7066  137.6289  154.7396 H   0  0  0  0  0  0  0  0  0  0  0  0
  149.7230  138.1994  153.4029 H   0  0  0  0  0  0  0  0  0  0  0  0
  149.4767  140.6444  155.2050 H   0  0  0  0  0  0  0  0  0  0  0  0
  149.9349  140.6518  153.5206 H   0  0  0  0  0  0  0  0  0  0  0  0
  147.5424  141.2626  153.8159 H   0  0  0  0  0  0  0  0  0  0  0  0
  147.7161  139.8193  152.8486 H   0  0  0  0  0  0  0  0  0  0  0  0
  147.0144  139.9366  155.8208 H   0  0  0  0  0  0  0  0  0  0  0  0
  145.9193  139.5094  154.5351 H   0  0  0  0  0  0  0  0  0  0  0  0
  146.8239  137.5345  155.7999 H   0  0  0  0  0  0  0  0  0  0  0  0
  147.9229  136.8784  153.2610 H   0  0  0  0  0  0  0  0  0  0  0  0
  146.9024  135.9233  151.8779 H   0  0  0  0  0  0  0  0  0  0  0  0
  145.0503  135.0055  149.5143 H   0  0  0  0  0  0  0  0  0  0  0  0
  146.4423  134.4400  150.4243 H   0  0  0  0  0  0  0  0  0  0  0  0
  142.6339  133.7034  150.5048 H   0  0  0  0  0  0  0  0  0  0  0  0
  142.4130  130.9582  150.7947 H   0  0  0  0  0  0  0  0  0  0  0  0
  146.4567  131.9756  150.7451 H   0  0  0  0  0  0  0  0  0  0  0  0
  149.0086  138.3455  156.3558 H   0  0  0  0  0  0  0  0  0  0  0  0
  149.3920  135.8873  154.5876 H   0  0  0  0  0  0  0  0  0  0  0  0
  148.6305  135.8600  156.1754 H   0  0  0  0  0  0  0  0  0  0  0  0
  150.3109  136.3245  156.0245 H   0  0  0  0  0  0  0  0  0  0  0  0
  1  2  1  0  0  0  0
  1 21  1  0  0  0  0
  1 22  1  0  0  0  0
  1 23  1  0  0  0  0
  2 19  1  0  0  0  0
  2  3  1  0  0  0  0
  2 24  1  0  0  0  0
  3  4  1  0  0  0  0
  3 25  1  0  0  0  0
  3 26  1  0  0  0  0
  4  5  1  0  0  0  0
  4 27  1  0  0  0  0
  4 28  1  0  0  0  0
  5  6  1  0  0  0  0
  5 29  1  0  0  0  0
  5 30  1  0  0  0  0
  6  7  1  0  0  0  0
  6 19  1  0  0  0  0
  6 31  1  0  0  0  0
  7  8  1  0  0  0  0
  7 32  1  0  0  0  0
  8  9  2  0  0  0  0
  8 10  1  0  0  0  0
 10 11  1  0  0  0  0
 10 33  1  0  0  0  0
 11 12  2  0  0  0  0
 11 13  1  0  0  0  0
 13 14  1  0  0  0  0
 13 34  1  0  0  0  0
 13 35  1  0  0  0  0
 14 18  1  0  0  0  0
 14 15  1  0  0  0  0
 15 16  2  0  0  0  0
 15 36  1  0  0  0  0
 16 17  1  0  0  0  0
 16 37  1  0  0  0  0
 17 18  2  0  0  0  0
 18 38  1  0  0  0  0
 19 20  1  0  0  0  0
 19 39  1  0  0  0  0
 20 40  1  0  0  0  0
 20 41  1  0  0  0  0
 20 42  1  0  0  0  0
M  END
> <s_m_source_file>
AV-unprocessed.smi

> <i_m_source_file_index>
527

> <i_lp_mmshare_version>
43012

> <i_f3d_flags>
0

> <s_epik_input>
W0NIM11bQ0BASF0xW0NIMl1bQ0gyXVtDSDJdW0NASF0oW0NASF0xW0NIM10pW05IXUMoPU8pW05IXUMoPU8pW0NIMl1uMltjSF1bY0hdbltjSF0y

> <s_epik_cmdline>
J2VwaWtfcHl0aG9uJywgJy1waCcsICc3LjAnLCAnLXRuJywgJzgnLCAnLW1hJywgJzIwMCcsICctbWV0YWxfYmluZGluZycsICctaW1hZScsICc8aW5maWxlLm1hZT4nLCAnLW9tYWUnLCAnPG91dGZpbGUubWFlPic=

> <r_lp_tautomer_probability>
1

> <r_epik_Ionization_Penalty>
0.172132

> <r_epik_Ionization_Penalty_Charging>
0.172105

> <r_epik_Ionization_Penalty_Neutral>
2.71747e-05

> <r_epik_State_Penalty>
0.161503

> <r_epik_Charging_Adjusted_Penalty>
0.333607

> <i_epik_Tot_Q>
0

> <i_epik_Tot_abs_Q>
0

> <r_epik_Metal_State_Penalty>
0.124763

> <b_epik_Metal_Only>
0

> <s_lp_Force_Field>
OPLS_2005

> <r_lp_Energy>
14.2901

> <b_lp_Chiralities_Consistent>
1

> <s_lp_Variant>
AV-unprocessed.smi:527-1

> <Gold.Version>
5.8.1

> <Gold.Id.Protein>
6NUR|6NUR_protein|mol2

> <Gold.PLP.Fitness>
44.2422

> <Gold.PLP.PLP>
-29.6624

> <Gold.PLP.part.hbond>
-2.0000

> <Gold.PLP.part.metal>
0.0000

> <Gold.PLP.part.buried>
-1.8274

> <Gold.PLP.part.nonpolar>
-25.5337

> <Gold.PLP.part.repulsive>
0.4375

> <Gold.PLP.ligand.clash>
0.0000

> <Gold.PLP.ligand.torsion>
0.1941

> <Gold.PLP.Chemscore.Hbond>
1.9920

> <Gold.PLP.Chemscore.CHOScore>
2.9899

> <Gold.PLP.Chemscore.Metal>
0.0000

> <Gold.Chemscore.Hbonds>
donor molecule, donor type, donor heavy atom, donor atom, acceptor molecule, acceptor atom, score
      L1  H     7    32       P1  7948  1.00
      L1  H    10    33       P1  7948  0.96
      L1  C    15    36       P1 10186  0.96
      L1  C    16    37       P1 10952  0.62
      L1  C    18    38       P1 10747  0.34

> <Gold.PLP.Chemscore.Internal.Correction>
0.0224

> <Gold.Rescore>
     Score         DG    S(hbond)    S(metal)    S(lipo)     H(rot)  DE(clash)    DE(int)     intcor
     13.05     -15.33       1.96        0.00      64.69       1.66       0.76       1.51       ----

> <Gold.Chemscore.Fitness>
13.0533

> <Gold.Chemscore.DG>
-15.3262

> <Gold.Chemscore.ZeroCoef>
-5.4800

> <Gold.Chemscore.Hbond>
1.9564

> <Gold.Chemscore.Metal>
0.0000

> <Gold.Chemscore.Lipo>
64.6898

> <Gold.Chemscore.Internal_Hbond>
0.0000

> <Gold.Chemscore.DEClash>
0.7645

> <Gold.Chemscore.DEInternal>
1.5084

> <Gold.Chemscore.Rot>
1.6629

> <Gold.Chemscore.Internal.Correction>
   9.000000E+99

> <Gold.Chemscore.Hbonds>
donor molecule, donor type, donor heavy atom, donor atom, acceptor molecule, acceptor atom, score
      L1  H     7    32       P1  7948  1.00
      L1  H    10    33       P1  7948  0.88

> <Gold.Chemscore.Hbond.Weighted>
-6.5344

> <Gold.Chemscore.Metal.Weighted>
-0.0000

> <Gold.Chemscore.Lipo.Weighted>
-7.5687

> <Gold.Chemscore.Internal_Hbond.Weighted>
0.0000

> <Gold.Chemscore.DEClash.Weighted>
0.7645

> <Gold.Chemscore.DEInternal.Weighted>
1.5084

> <Gold.Chemscore.Rot.Weighted>
4.2569

> <Gold.Chemscore.Internal.Correction.Weighted>
   9.000000E+99

> <Gold.Protein.RotatedTorsions>
[ 6907 6896 6895 6894 ] final   89.36 input  -60.11 | X-H torsion
[ 7974 7965 7964 7962 ] final  -83.63 input  175.53 | X-H torsion
[ 8008 7997 7996 7995 ] final  140.16 input   59.86 | X-H torsion
[ 10167 10162 10161 10158 ] final  -34.95 input  -65.29 | X-H torsion
[ 10718 10713 10712 10709 ] final    7.77 input   66.30 | X-H torsion
[ 10763 10752 10751 10750 ] final  163.33 input  -60.55 | X-H torsion
[ 11005 11000 10999 10996 ] final -108.03 input  -57.11 | X-H torsion

> <Gold.Protein.ActiveResidues>
 VAL166  LYS551  ARG553  GLY616  TRP617  ASP618  TYR619  PRO620  LYS621  CYS622 
 ASP623  PHE694  ASN695  SER759  ASP760  ASP761  ALA762  ILE779  LEU786  VAL792 
 PHE793  MET794  SER795  GLU796  ALA797  LYS798  CYS799  TRP800  GLU811  SER814 

> <Gold.Protein.RotatedAtoms>
  152.5435  134.1979  159.8700 H   0  0  0  0  0  0  0  0  0  0  0  0  # atno 6907 bound_to 6896
  151.1970  133.4626  159.2603 H   0  0  0  0  0  0  0  0  0  0  0  0  # atno 6908 bound_to 6896
  151.1027  134.9994  159.8512 H   0  0  0  0  0  0  0  0  0  0  0  0  # atno 6909 bound_to 6896
  145.5175  140.9534  143.1674 H   0  0  0  0  0  0  0  0  0  0  0  0  # atno 7974 bound_to 7965
  156.2982  140.2348  156.4356 H   0  0  0  0  0  0  0  0  0  0  0  0  # atno 8008 bound_to 7997
  154.8231  140.0437  157.1445 H   0  0  0  0  0  0  0  0  0  0  0  0  # atno 8009 bound_to 7997
  154.9292  140.3014  155.5180 H   0  0  0  0  0  0  0  0  0  0  0  0  # atno 8010 bound_to 7997
  140.7175  143.3512  151.2153 H   0  0  0  0  0  0  0  0  0  0  0  0  # atno 10167 bound_to 10162
  156.9418  130.5864  149.5653 H   0  0  0  0  0  0  0  0  0  0  0  0  # atno 10718 bound_to 10713
  154.2921  135.2761  155.2650 H   0  0  0  0  0  0  0  0  0  0  0  0  # atno 10763 bound_to 10752
  154.5124  135.5779  153.6619 H   0  0  0  0  0  0  0  0  0  0  0  0  # atno 10764 bound_to 10752
  152.9913  135.6184  154.3086 H   0  0  0  0  0  0  0  0  0  0  0  0  # atno 10765 bound_to 10752
  141.0923  133.9033  157.2046 H   0  0  0  0  0  0  0  0  0  0  0  0  # atno 11005 bound_to 11000
  144.7694  139.6769  143.7201 LP  0  0  0  0  0  0  0  0  0  0  0  0  # atno 17320 bound_to 7965
  146.2127  139.5495  142.9670 LP  0  0  0  0  0  0  0  0  0  0  0  0  # atno 17321 bound_to 7965
  139.7043  143.9482  152.2919 LP  0  0  0  0  0  0  0  0  0  0  0  0  # atno 17342 bound_to 10162
  139.9185  144.6814  150.8486 LP  0  0  0  0  0  0  0  0  0  0  0  0  # atno 17343 bound_to 10162
  156.0401  130.5484  150.8749 LP  0  0  0  0  0  0  0  0  0  0  0  0  # atno 17370 bound_to 10713
  157.5780  131.0946  150.9316 LP  0  0  0  0  0  0  0  0  0  0  0  0  # atno 17371 bound_to 10713
  139.9752  135.0116  156.9612 LP  0  0  0  0  0  0  0  0  0  0  0  0  # atno 17394 bound_to 11000
  140.5222  134.0896  155.7295 LP  0  0  0  0  0  0  0  0  0  0  0  0  # atno 17395 bound_to 11000

$$$$
