AV-unprocessed.smi:1090|AV-procd|sdf|4735|dock6
  -GOLD-   22720 3273D 1   1.00000     0.00000
 Structure written by MMmdl.
 38 40  0  0  0  0  0  0  0  0  1 V2000
  151.3642  141.5509  157.9080 O   0  0  0  0  0  0  0  0  0  0  0  0
  151.0575  142.3986  157.0698 C   0  0  0  0  0  0  0  0  0  0  0  0
  150.7607  141.9814  155.6273 C   0  0  0  0  0  0  0  0  0  0  0  0
  150.5684  140.4576  155.4520 C   0  0  0  0  0  0  0  0  0  0  0  0
  151.8616  139.6731  155.6340 C   0  0  0  0  0  0  0  0  0  0  0  0
  152.6596  139.1883  154.4461 C   0  0  0  0  0  0  0  0  0  0  0  0
  151.9433  138.1943  155.3303 C   0  0  0  0  0  0  0  0  0  0  0  0
  149.9524  140.1591  154.0960 C   0  0  0  0  0  0  0  0  0  0  0  0
  148.5466  140.5980  153.7642 C   0  0  0  0  0  0  0  0  0  0  0  0
  148.8610  139.1281  153.9355 C   0  0  0  0  0  0  0  0  0  0  0  0
  150.9706  143.7092  157.3428 N   0  0  0  0  0  0  0  0  0  0  0  0
  151.1824  144.3034  158.6569 C   0  0  0  0  0  0  0  0  0  0  0  0
  152.6624  144.2466  159.0682 C   0  0  0  0  0  0  0  0  0  0  0  0
  152.9175  143.2312  160.1305 C   0  0  0  0  0  0  0  0  0  0  0  0
  152.5392  143.3829  161.4029 N   0  0  0  0  0  0  0  0  0  0  0  0
  152.9260  142.3072  162.2063 C   0  0  0  0  0  0  0  0  0  0  0  0
  153.6187  141.3377  161.5265 C   0  0  0  0  0  0  0  0  0  0  0  0
  153.8140  141.7434  159.8435 S   0  0  0  0  0  0  0  0  0  0  0  0
  149.8669  142.5087  155.2902 H   0  0  0  0  0  0  0  0  0  0  0  0
  151.5731  142.3304  154.9885 H   0  0  0  0  0  0  0  0  0  0  0  0
  149.8636  140.1148  156.2121 H   0  0  0  0  0  0  0  0  0  0  0  0
  152.4540  140.0128  156.4817 H   0  0  0  0  0  0  0  0  0  0  0  0
  152.2503  139.3549  153.4517 H   0  0  0  0  0  0  0  0  0  0  0  0
  153.7443  139.2367  154.5178 H   0  0  0  0  0  0  0  0  0  0  0  0
  152.5475  137.5800  155.9945 H   0  0  0  0  0  0  0  0  0  0  0  0
  151.0578  137.7090  154.9242 H   0  0  0  0  0  0  0  0  0  0  0  0
  150.6659  140.2191  153.2758 H   0  0  0  0  0  0  0  0  0  0  0  0
  147.9676  141.0817  154.5485 H   0  0  0  0  0  0  0  0  0  0  0  0
  148.3579  140.9584  152.7551 H   0  0  0  0  0  0  0  0  0  0  0  0
  148.8834  138.5097  153.0407 H   0  0  0  0  0  0  0  0  0  0  0  0
  148.4837  138.6391  154.8313 H   0  0  0  0  0  0  0  0  0  0  0  0
  150.7211  144.3364  156.5917 H   0  0  0  0  0  0  0  0  0  0  0  0
  150.8215  145.3333  158.6655 H   0  0  0  0  0  0  0  0  0  0  0  0
  150.5757  143.7556  159.3785 H   0  0  0  0  0  0  0  0  0  0  0  0
  153.2856  144.0151  158.2035 H   0  0  0  0  0  0  0  0  0  0  0  0
  152.9921  145.2184  159.4375 H   0  0  0  0  0  0  0  0  0  0  0  0
  152.6679  142.3145  163.2551 H   0  0  0  0  0  0  0  0  0  0  0  0
  154.0272  140.4152  161.9124 H   0  0  0  0  0  0  0  0  0  0  0  0
  1  2  2  0  0  0  0
  2  3  1  0  0  0  0
  2 11  1  0  0  0  0
  3  4  1  0  0  0  0
  3 19  1  0  0  0  0
  3 20  1  0  0  0  0
  4  5  1  0  0  0  0
  4  8  1  0  0  0  0
  4 21  1  0  0  0  0
  5  7  1  0  0  0  0
  5  6  1  0  0  0  0
  5 22  1  0  0  0  0
  6  7  1  0  0  0  0
  6 23  1  0  0  0  0
  6 24  1  0  0  0  0
  7 25  1  0  0  0  0
  7 26  1  0  0  0  0
  8 10  1  0  0  0  0
  8  9  1  0  0  0  0
  8 27  1  0  0  0  0
  9 10  1  0  0  0  0
  9 28  1  0  0  0  0
  9 29  1  0  0  0  0
 10 30  1  0  0  0  0
 10 31  1  0  0  0  0
 11 12  1  0  0  0  0
 11 32  1  0  0  0  0
 12 13  1  0  0  0  0
 12 33  1  0  0  0  0
 12 34  1  0  0  0  0
 13 14  1  0  0  0  0
 13 35  1  0  0  0  0
 13 36  1  0  0  0  0
 14 18  1  0  0  0  0
 14 15  2  0  0  0  0
 15 16  1  0  0  0  0
 16 17  2  0  0  0  0
 16 37  1  0  0  0  0
 17 18  1  0  0  0  0
 17 38  1  0  0  0  0
M  END
> <s_m_source_file>
AV-unprocessed.smi

> <i_m_source_file_index>
1090

> <i_lp_mmshare_version>
43012

> <i_f3d_flags>
0

> <s_epik_input>
W0NIMl0xW0NIMl1bQ0hdMVtDSF0oW0NIXTJbQ0gyXVtDSDJdMilbQ0gyXUMoPU8pW05IXVtDSDJdW0NIMl1jM25bY0hdW2NIXXMz

> <s_epik_cmdline>
J2VwaWtfcHl0aG9uJywgJy1waCcsICc3LjAnLCAnLXRuJywgJzgnLCAnLW1hJywgJzIwMCcsICctbWV0YWxfYmluZGluZycsICctaW1hZScsICc8aW5maWxlLm1hZT4nLCAnLW9tYWUnLCAnPG91dGZpbGUubWFlPic=

> <r_lp_tautomer_probability>
1

> <r_epik_Ionization_Penalty>
0.000189819

> <r_epik_Ionization_Penalty_Charging>
0

> <r_epik_Ionization_Penalty_Neutral>
0.000189819

> <r_epik_State_Penalty>
-0

> <r_epik_Charging_Adjusted_Penalty>
0

> <i_epik_Tot_Q>
0

> <i_epik_Tot_abs_Q>
0

> <r_epik_Metal_State_Penalty>
-0

> <b_epik_Metal_Only>
0

> <s_lp_Force_Field>
OPLS_2005

> <r_lp_Energy>
14.2357

> <b_lp_Chiralities_Consistent>
1

> <s_lp_Variant>
AV-unprocessed.smi:1090-1

> <Gold.Version>
5.8.1

> <Gold.Id.Protein>
6NUR|6NUR_protein|mol2

> <Gold.PLP.Fitness>
48.5375

> <Gold.PLP.PLP>
-47.1285

> <Gold.PLP.part.hbond>
-1.0000

> <Gold.PLP.part.metal>
0.0000

> <Gold.PLP.part.buried>
-4.1718

> <Gold.PLP.part.nonpolar>
-41.4567

> <Gold.PLP.part.repulsive>
0.1345

> <Gold.PLP.ligand.clash>
0.0000

> <Gold.PLP.ligand.torsion>
1.8954

> <Gold.PLP.Chemscore.Hbond>
0.9760

> <Gold.PLP.Chemscore.CHOScore>
0.0000

> <Gold.PLP.Chemscore.Metal>
0.0000

> <Gold.Chemscore.Hbonds>
donor molecule, donor type, donor heavy atom, donor atom, acceptor molecule, acceptor atom, score
      L1  H    11    32       P1  8028  0.60

> <Gold.PLP.Chemscore.Internal.Correction>
2.2718

> <Gold.Rescore>
     Score         DG    S(hbond)    S(metal)    S(lipo)     H(rot)  DE(clash)    DE(int)     intcor
     15.27     -18.40       0.97        0.00     119.84       1.70       1.34       1.78       ----

> <Gold.Chemscore.Fitness>
15.2749

> <Gold.Chemscore.DG>
-18.3988

> <Gold.Chemscore.ZeroCoef>
-5.4800

> <Gold.Chemscore.Hbond>
0.9714

> <Gold.Chemscore.Metal>
0.0000

> <Gold.Chemscore.Lipo>
119.8443

> <Gold.Chemscore.Internal_Hbond>
0.0000

> <Gold.Chemscore.DEClash>
1.3422

> <Gold.Chemscore.DEInternal>
1.7817

> <Gold.Chemscore.Rot>
1.6982

> <Gold.Chemscore.Internal.Correction>
   9.000000E+99

> <Gold.Chemscore.Hbonds>
donor molecule, donor type, donor heavy atom, donor atom, acceptor molecule, acceptor atom, score
      L1  H    11    32       P1  8028  0.58

> <Gold.Chemscore.Hbond.Weighted>
-3.2444

> <Gold.Chemscore.Metal.Weighted>
-0.0000

> <Gold.Chemscore.Lipo.Weighted>
-14.0218

> <Gold.Chemscore.Internal_Hbond.Weighted>
0.0000

> <Gold.Chemscore.DEClash.Weighted>
1.3422

> <Gold.Chemscore.DEInternal.Weighted>
1.7817

> <Gold.Chemscore.Rot.Weighted>
4.3474

> <Gold.Chemscore.Internal.Correction.Weighted>
   9.000000E+99

> <Gold.Protein.RotatedTorsions>
[ 6907 6896 6895 6894 ] final  -23.21 input  -60.11 | X-H torsion
[ 7974 7965 7964 7962 ] final  -72.00 input  175.53 | X-H torsion
[ 8008 7997 7996 7995 ] final  149.23 input   59.86 | X-H torsion
[ 10167 10162 10161 10158 ] final  -89.60 input  -65.29 | X-H torsion
[ 10718 10713 10712 10709 ] final  171.79 input   66.30 | X-H torsion
[ 10763 10752 10751 10750 ] final -122.71 input  -60.55 | X-H torsion
[ 11005 11000 10999 10996 ] final  100.30 input  -57.11 | X-H torsion

> <Gold.Protein.ActiveResidues>
 VAL166  LYS551  ARG553  GLY616  TRP617  ASP618  TYR619  PRO620  LYS621  CYS622 
 ASP623  PHE694  ASN695  SER759  ASP760  ASP761  ALA762  ILE779  LEU786  VAL792 
 PHE793  MET794  SER795  GLU796  ALA797  LYS798  CYS799  TRP800  GLU811  SER814 

> <Gold.Protein.RotatedAtoms>
  151.2074  135.0467  159.8896 H   0  0  0  0  0  0  0  0  0  0  0  0  # atno 6907 bound_to 6896
  152.5427  134.0783  159.8234 H   0  0  0  0  0  0  0  0  0  0  0  0  # atno 6908 bound_to 6896
  151.0932  133.5252  159.2646 H   0  0  0  0  0  0  0  0  0  0  0  0  # atno 6909 bound_to 6896
  145.6709  140.9221  143.0884 H   0  0  0  0  0  0  0  0  0  0  0  0  # atno 7974 bound_to 7965
  156.2762  140.2107  156.5826 H   0  0  0  0  0  0  0  0  0  0  0  0  # atno 8008 bound_to 7997
  154.7047  140.0517  157.0515 H   0  0  0  0  0  0  0  0  0  0  0  0  # atno 8009 bound_to 7997
  155.0687  140.3174  155.4640 H   0  0  0  0  0  0  0  0  0  0  0  0  # atno 8010 bound_to 7997
  140.3632  143.2831  151.9589 H   0  0  0  0  0  0  0  0  0  0  0  0  # atno 10167 bound_to 10162
  156.9884  131.0140  151.2863 H   0  0  0  0  0  0  0  0  0  0  0  0  # atno 10718 bound_to 10713
  154.8694  135.4123  154.2825 H   0  0  0  0  0  0  0  0  0  0  0  0  # atno 10763 bound_to 10752
  153.3715  135.7008  153.6639 H   0  0  0  0  0  0  0  0  0  0  0  0  # atno 10764 bound_to 10752
  153.5499  135.3631  155.2727 H   0  0  0  0  0  0  0  0  0  0  0  0  # atno 10765 bound_to 10752
  139.8771  134.9134  156.4735 H   0  0  0  0  0  0  0  0  0  0  0  0  # atno 11005 bound_to 11000
  144.7057  139.8570  143.7430 LP  0  0  0  0  0  0  0  0  0  0  0  0  # atno 17320 bound_to 7965
  146.1046  139.4045  143.0325 LP  0  0  0  0  0  0  0  0  0  0  0  0  # atno 17321 bound_to 7965
  139.4811  144.5974  151.7667 LP  0  0  0  0  0  0  0  0  0  0  0  0  # atno 17342 bound_to 10162
  140.5106  144.1031  150.5994 LP  0  0  0  0  0  0  0  0  0  0  0  0  # atno 17343 bound_to 10162
  157.5476  130.8161  149.8105 LP  0  0  0  0  0  0  0  0  0  0  0  0  # atno 17370 bound_to 10713
  156.0216  130.3793  150.1944 LP  0  0  0  0  0  0  0  0  0  0  0  0  # atno 17371 bound_to 10713
  140.8778  133.7940  155.9434 LP  0  0  0  0  0  0  0  0  0  0  0  0  # atno 17394 bound_to 11000
  140.8885  134.2524  157.5107 LP  0  0  0  0  0  0  0  0  0  0  0  0  # atno 17395 bound_to 11000

$$$$
