AV-unprocessed.smi:3009|AV-procd|sdf|11453|dock10
  -GOLD-   2272016383D 1   1.00000     0.00000
 Structure written by MMmdl.
 43 44  0  0  0  0  0  0  0  0  1 V2000
  150.0760  143.0249  158.3920 C   0  0  0  0  0  0  0  0  0  0  0  0
  150.4346  141.7211  157.6593 C   0  0  0  0  0  0  0  0  0  0  0  0
  151.3665  140.8148  158.4823 C   0  0  0  0  0  0  0  0  0  0  0  0
  150.9013  141.9345  156.1980 C   0  0  0  0  0  0  0  0  0  0  0  0
  150.7484  140.8140  155.2640 N   0  0  0  0  0  0  0  0  0  0  0  0
  151.3555  139.5755  155.7443 C   0  0  0  0  0  0  0  0  0  0  0  0
  151.1321  138.4062  154.7702 C   0  0  0  0  0  0  0  0  0  0  0  0
  149.7393  138.2394  154.5313 O   0  0  0  0  0  0  0  0  0  0  0  0
  149.1281  139.4087  153.9920 C   0  0  1  0  0  0  0  0  0  0  0  0
  147.6366  139.1168  153.7538 C   0  0  0  0  0  0  0  0  0  0  0  0
  147.4404  137.8754  153.0129 N   0  0  0  0  0  0  0  0  0  0  0  0
  146.2528  137.3036  152.7705 C   0  0  0  0  0  0  0  0  0  0  0  0
  145.1818  137.7642  153.1670 O   0  0  0  0  0  0  0  0  0  0  0  0
  146.3904  136.1798  152.0480 N   0  0  0  0  0  0  0  0  0  0  0  0
  145.3614  135.3161  151.5948 C   0  0  0  0  0  0  0  0  0  0  0  0
  145.5047  133.9141  151.4094 C   0  0  0  0  0  0  0  0  0  0  0  0
  144.3786  133.3661  150.9755 N   0  0  0  0  0  0  0  0  0  0  0  0
  143.5182  134.4052  150.8811 N   0  0  0  0  0  0  0  0  0  0  0  0
  144.0729  135.6117  151.2471 C   0  0  0  0  0  0  0  0  0  0  0  0
  149.3365  140.5699  154.9835 C   0  0  0  0  0  0  0  0  0  0  0  0
  142.5663  134.2769  150.5680 H   0  0  0  0  0  0  0  0  0  0  0  0
  150.9554  143.6436  158.5717 H   0  0  0  0  0  0  0  0  0  0  0  0
  149.6194  142.8156  159.3596 H   0  0  0  0  0  0  0  0  0  0  0  0
  149.3651  143.6156  157.8138 H   0  0  0  0  0  0  0  0  0  0  0  0
  149.5035  141.1581  157.5800 H   0  0  0  0  0  0  0  0  0  0  0  0
  152.3224  141.2845  158.7041 H   0  0  0  0  0  0  0  0  0  0  0  0
  151.5688  139.8810  157.9572 H   0  0  0  0  0  0  0  0  0  0  0  0
  150.9075  140.5563  159.4371 H   0  0  0  0  0  0  0  0  0  0  0  0
  150.4329  142.8298  155.7862 H   0  0  0  0  0  0  0  0  0  0  0  0
  151.9647  142.1724  156.2533 H   0  0  0  0  0  0  0  0  0  0  0  0
  152.4279  139.7055  155.8684 H   0  0  0  0  0  0  0  0  0  0  0  0
  150.9488  139.3167  156.7230 H   0  0  0  0  0  0  0  0  0  0  0  0
  151.6508  138.5848  153.8269 H   0  0  0  0  0  0  0  0  0  0  0  0
  151.5353  137.4834  155.1873 H   0  0  0  0  0  0  0  0  0  0  0  0
  149.6057  139.6590  153.0429 H   0  0  0  0  0  0  0  0  0  0  0  0
  147.1145  139.0339  154.7074 H   0  0  0  0  0  0  0  0  0  0  0  0
  147.1693  139.9438  153.2162 H   0  0  0  0  0  0  0  0  0  0  0  0
  148.2687  137.4311  152.6447 H   0  0  0  0  0  0  0  0  0  0  0  0
  147.3307  135.9149  151.7934 H   0  0  0  0  0  0  0  0  0  0  0  0
  146.3705  133.2889  151.5721 H   0  0  0  0  0  0  0  0  0  0  0  0
  143.5141  136.5357  151.2248 H   0  0  0  0  0  0  0  0  0  0  0  0
  148.8089  140.3514  155.9136 H   0  0  0  0  0  0  0  0  0  0  0  0
  148.8826  141.4734  154.5740 H   0  0  0  0  0  0  0  0  0  0  0  0
  1  2  1  0  0  0  0
  1 22  1  0  0  0  0
  1 23  1  0  0  0  0
  1 24  1  0  0  0  0
  2  3  1  0  0  0  0
  2  4  1  0  0  0  0
  2 25  1  0  0  0  0
  3 26  1  0  0  0  0
  3 27  1  0  0  0  0
  3 28  1  0  0  0  0
  4  5  1  0  0  0  0
  4 29  1  0  0  0  0
  4 30  1  0  0  0  0
  5 20  1  0  0  0  0
  5  6  1  0  0  0  0
  6  7  1  0  0  0  0
  6 31  1  0  0  0  0
  6 32  1  0  0  0  0
  7  8  1  0  0  0  0
  7 33  1  0  0  0  0
  7 34  1  0  0  0  0
  8  9  1  0  0  0  0
  9 10  1  0  0  0  0
  9 20  1  0  0  0  0
  9 35  1  0  0  0  0
 10 11  1  0  0  0  0
 10 36  1  0  0  0  0
 10 37  1  0  0  0  0
 11 12  1  0  0  0  0
 11 38  1  0  0  0  0
 12 13  2  0  0  0  0
 12 14  1  0  0  0  0
 14 15  1  0  0  0  0
 14 39  1  0  0  0  0
 15 19  2  0  0  0  0
 15 16  1  0  0  0  0
 16 17  2  0  0  0  0
 16 40  1  0  0  0  0
 17 18  1  0  0  0  0
 18 21  1  0  0  0  0
 18 19  1  0  0  0  0
 19 41  1  0  0  0  0
 20 42  1  0  0  0  0
 20 43  1  0  0  0  0
M  END
> <s_m_source_file>
AV-unprocessed.smi

> <i_m_source_file_index>
3009

> <i_lp_mmshare_version>
43012

> <i_f3d_flags>
0

> <s_epik_input>
W0NIM11bQ0hdKFtDSDNdKVtDSDJdTjFbQ0gyXVtDSDJdT1tDQEhdKFtDSDJdMSlbQ0gyXVtOSF1DKD1PKVtOSF1jMltjSF1uW25IXVtjSF0y

> <s_epik_cmdline>
J2VwaWtfcHl0aG9uJywgJy1waCcsICc3LjAnLCAnLXRuJywgJzgnLCAnLW1hJywgJzIwMCcsICctbWV0YWxfYmluZGluZycsICctaW1hZScsICc8aW5maWxlLm1hZT4nLCAnLW9tYWUnLCAnPG91dGZpbGUubWFlPic=

> <r_lp_tautomer_probability>
0.5

> <r_epik_Ionization_Penalty>
1.11801

> <r_epik_Ionization_Penalty_Charging>
0

> <r_epik_Ionization_Penalty_Neutral>
1.11801

> <r_epik_State_Penalty>
1.17654

> <r_epik_Charging_Adjusted_Penalty>
1.17654

> <i_epik_Tot_Q>
0

> <i_epik_Tot_abs_Q>
0

> <r_epik_Metal_State_Penalty>
1.17654

> <b_epik_Metal_Only>
0

> <s_lp_Force_Field>
OPLS_2005

> <r_lp_Energy>
30.4002

> <b_lp_Chiralities_Consistent>
1

> <s_lp_Variant>
AV-unprocessed.smi:3009-5

> <Gold.Version>
5.8.1

> <Gold.Id.Protein>
6NUR|6NUR_protein|mol2

> <Gold.PLP.Fitness>
43.8537

> <Gold.PLP.PLP>
-30.5585

> <Gold.PLP.part.hbond>
-3.9038

> <Gold.PLP.part.metal>
0.0000

> <Gold.PLP.part.buried>
-3.0294

> <Gold.PLP.part.nonpolar>
-24.6069

> <Gold.PLP.part.repulsive>
0.7248

> <Gold.PLP.ligand.clash>
0.0000

> <Gold.PLP.ligand.torsion>
0.4801

> <Gold.PLP.Chemscore.Hbond>
3.7344

> <Gold.PLP.Chemscore.CHOScore>
0.9983

> <Gold.PLP.Chemscore.Metal>
0.0000

> <Gold.Chemscore.Hbonds>
donor molecule, donor type, donor heavy atom, donor atom, acceptor molecule, acceptor atom, score
      L1  H    11    38       P1  7948  1.00
      L1  H    14    39       P1  7948  1.00
      L1  H    18    21       P1 10186  1.00
      P1  H  7989  7998       L1     5  0.73
      L1  C    19    41       P1 10171  1.00

> <Gold.PLP.Chemscore.Internal.Correction>
0.0573

> <Gold.Rescore>
     Score         DG    S(hbond)    S(metal)    S(lipo)     H(rot)  DE(clash)    DE(int)     intcor
     16.22     -18.61       2.79        0.00      71.16       1.76       1.08       1.31       ----

> <Gold.Chemscore.Fitness>
16.2243

> <Gold.Chemscore.DG>
-18.6122

> <Gold.Chemscore.ZeroCoef>
-5.4800

> <Gold.Chemscore.Hbond>
2.7855

> <Gold.Chemscore.Metal>
0.0000

> <Gold.Chemscore.Lipo>
71.1630

> <Gold.Chemscore.Internal_Hbond>
0.0000

> <Gold.Chemscore.DEClash>
1.0819

> <Gold.Chemscore.DEInternal>
1.3060

> <Gold.Chemscore.Rot>
1.7568

> <Gold.Chemscore.Internal.Correction>
   9.000000E+99

> <Gold.Chemscore.Hbonds>
donor molecule, donor type, donor heavy atom, donor atom, acceptor molecule, acceptor atom, score
      L1  H    11    38       P1  7948  0.93
      L1  H    14    39       P1  7948  0.94
      L1  H    18    21       P1 10186  0.55
      P1  H  7989  7998       L1     5  0.08

> <Gold.Chemscore.Hbond.Weighted>
-9.3036

> <Gold.Chemscore.Metal.Weighted>
-0.0000

> <Gold.Chemscore.Lipo.Weighted>
-8.3261

> <Gold.Chemscore.Internal_Hbond.Weighted>
0.0000

> <Gold.Chemscore.DEClash.Weighted>
1.0819

> <Gold.Chemscore.DEInternal.Weighted>
1.3060

> <Gold.Chemscore.Rot.Weighted>
4.4974

> <Gold.Chemscore.Internal.Correction.Weighted>
   9.000000E+99

> <Gold.Protein.RotatedTorsions>
[ 6907 6896 6895 6894 ] final  -53.26 input  -60.11 | X-H torsion
[ 7974 7965 7964 7962 ] final  -77.58 input  175.53 | X-H torsion
[ 8008 7997 7996 7995 ] final   79.44 input   59.86 | X-H torsion
[ 10167 10162 10161 10158 ] final  107.82 input  -65.29 | X-H torsion
[ 10718 10713 10712 10709 ] final -157.47 input   66.30 | X-H torsion
[ 10763 10752 10751 10750 ] final  128.43 input  -60.55 | X-H torsion
[ 11005 11000 10999 10996 ] final  140.44 input  -57.11 | X-H torsion

> <Gold.Protein.ActiveResidues>
 VAL166  LYS551  ARG553  GLY616  TRP617  ASP618  TYR619  PRO620  LYS621  CYS622 
 ASP623  PHE694  ASN695  SER759  ASP760  ASP761  ALA762  ILE779  LEU786  VAL792 
 PHE793  MET794  SER795  GLU796  ALA797  LYS798  CYS799  TRP800  GLU811  SER814 

> <Gold.Protein.RotatedAtoms>
  150.8442  134.7746  159.6956 H   0  0  0  0  0  0  0  0  0  0  0  0  # atno 6907 bound_to 6896
  152.4523  134.5364  159.9836 H   0  0  0  0  0  0  0  0  0  0  0  0  # atno 6908 bound_to 6896
  151.5497  133.3381  159.2986 H   0  0  0  0  0  0  0  0  0  0  0  0  # atno 6909 bound_to 6896
  145.5978  140.9415  143.1257 H   0  0  0  0  0  0  0  0  0  0  0  0  # atno 7974 bound_to 7965
  155.8697  140.3449  155.5813 H   0  0  0  0  0  0  0  0  0  0  0  0  # atno 8008 bound_to 7997
  155.7841  140.0862  157.2063 H   0  0  0  0  0  0  0  0  0  0  0  0  # atno 8009 bound_to 7997
  154.4016  140.1495  156.3073 H   0  0  0  0  0  0  0  0  0  0  0  0  # atno 8010 bound_to 7997
  139.6896  144.7109  151.1372 H   0  0  0  0  0  0  0  0  0  0  0  0  # atno 10167 bound_to 10162
  156.5407  130.8562  151.2748 H   0  0  0  0  0  0  0  0  0  0  0  0  # atno 10718 bound_to 10713
  153.7254  135.3247  155.3275 H   0  0  0  0  0  0  0  0  0  0  0  0  # atno 10763 bound_to 10752
  154.8343  135.4509  154.1175 H   0  0  0  0  0  0  0  0  0  0  0  0  # atno 10764 bound_to 10752
  153.2307  135.6959  153.7973 H   0  0  0  0  0  0  0  0  0  0  0  0  # atno 10765 bound_to 10752
  140.0327  134.9344  157.0694 H   0  0  0  0  0  0  0  0  0  0  0  0  # atno 11005 bound_to 11000
  144.7323  139.7689  143.7342 LP  0  0  0  0  0  0  0  0  0  0  0  0  # atno 17320 bound_to 7965
  146.1599  139.4709  142.9995 LP  0  0  0  0  0  0  0  0  0  0  0  0  # atno 17321 bound_to 7965
  140.7678  143.5579  150.9132 LP  0  0  0  0  0  0  0  0  0  0  0  0  # atno 17342 bound_to 10162
  139.9255  143.6554  152.3087 LP  0  0  0  0  0  0  0  0  0  0  0  0  # atno 17343 bound_to 10162
  157.7406  130.9853  150.2387 LP  0  0  0  0  0  0  0  0  0  0  0  0  # atno 17370 bound_to 10713
  156.2974  130.3754  149.7783 LP  0  0  0  0  0  0  0  0  0  0  0  0  # atno 17371 bound_to 10713
  140.4199  134.1892  155.7164 LP  0  0  0  0  0  0  0  0  0  0  0  0  # atno 17394 bound_to 11000
  141.1840  133.8353  157.1155 LP  0  0  0  0  0  0  0  0  0  0  0  0  # atno 17395 bound_to 11000

$$$$
