AV-unprocessed.smi:2001|AV-procd|sdf|8104|dock10
  -GOLD-   2272010333D 1   1.00000     0.00000
 Structure written by MMmdl.
 50 51  0  0  0  0  0  0  0  0  1 V2000
  146.0370  142.9414  153.8887 C   0  0  0  0  0  0  0  0  0  0  0  0
  146.8382  142.2788  154.8513 O   0  0  0  0  0  0  0  0  0  0  0  0
  147.9943  141.6891  154.2813 C   0  0  0  0  0  0  0  0  0  0  0  0
  148.9099  141.1982  155.4124 C   0  0  0  0  0  0  0  0  0  0  0  0
  149.3405  139.8133  155.1951 N   0  0  0  0  0  0  0  0  0  0  0  0
  148.3056  138.8929  155.1951 N   0  0  0  0  0  0  0  0  0  0  0  0
  148.5532  137.6363  155.0107 C   0  0  0  0  0  0  0  0  0  0  0  0
  147.4690  136.6155  154.9945 C   0  0  0  0  0  0  0  0  0  0  0  0
  146.6630  136.5091  155.9204 O   0  0  0  0  0  0  0  0  0  0  0  0
  147.4374  135.8235  153.9072 N   0  0  0  0  0  0  0  0  0  0  0  0
  146.4885  134.7390  153.6862 C   0  0  0  0  0  0  0  0  0  0  0  0
  145.7130  134.9230  152.3679 C   0  0  0  0  0  0  0  0  0  0  0  0
  145.3096  133.6780  151.7173 N   0  0  0  0  0  0  0  0  0  0  0  0
  146.4381  132.7874  151.4551 C   0  0  0  0  0  0  0  0  0  0  0  0
  146.0159  131.4840  150.7464 C   0  0  1  0  0  0  0  0  0  0  0  0
  145.2912  130.4942  151.6745 C   0  0  0  0  0  0  0  0  0  0  0  0
  145.2447  131.7789  149.5804 O   0  0  0  0  0  0  0  0  0  0  0  0
  144.1313  132.6456  149.7909 C   0  0  2  0  0  0  0  0  0  0  0  0
  143.4701  132.9118  148.4346 C   0  0  0  0  0  0  0  0  0  0  0  0
  144.6148  133.9426  150.4640 C   0  0  0  0  0  0  0  0  0  0  0  0
  149.9138  137.1682  154.8063 C   0  0  0  0  0  0  0  0  0  0  0  0
  150.9133  138.0771  154.8154 C   0  0  0  0  0  0  0  0  0  0  0  0
  150.6609  139.5038  155.0221 C   0  0  0  0  0  0  0  0  0  0  0  0
  151.5548  140.3495  155.0412 O   0  0  0  0  0  0  0  0  0  0  0  0
  145.1640  143.3763  154.3751 H   0  0  0  0  0  0  0  0  0  0  0  0
  145.6849  142.2479  153.1240 H   0  0  0  0  0  0  0  0  0  0  0  0
  146.5889  143.7477  153.4039 H   0  0  0  0  0  0  0  0  0  0  0  0
  147.7066  140.8575  153.6358 H   0  0  0  0  0  0  0  0  0  0  0  0
  148.5193  142.4199  153.6640 H   0  0  0  0  0  0  0  0  0  0  0  0
  149.7815  141.8518  155.4820 H   0  0  0  0  0  0  0  0  0  0  0  0
  148.4006  141.2920  156.3734 H   0  0  0  0  0  0  0  0  0  0  0  0
  148.1329  135.9758  153.1908 H   0  0  0  0  0  0  0  0  0  0  0  0
  147.0567  133.8096  153.6738 H   0  0  0  0  0  0  0  0  0  0  0  0
  145.7984  134.6727  154.5291 H   0  0  0  0  0  0  0  0  0  0  0  0
  144.8163  135.5048  152.5854 H   0  0  0  0  0  0  0  0  0  0  0  0
  146.3009  135.5290  151.6768 H   0  0  0  0  0  0  0  0  0  0  0  0
  147.1692  133.3052  150.8325 H   0  0  0  0  0  0  0  0  0  0  0  0
  146.9499  132.5332  152.3824 H   0  0  0  0  0  0  0  0  0  0  0  0
  146.9202  130.9857  150.3960 H   0  0  0  0  0  0  0  0  0  0  0  0
  145.9371  130.1933  152.4996 H   0  0  0  0  0  0  0  0  0  0  0  0
  145.0052  129.5920  151.1336 H   0  0  0  0  0  0  0  0  0  0  0  0
  144.3887  130.9238  152.1086 H   0  0  0  0  0  0  0  0  0  0  0  0
  143.4035  132.1508  150.4348 H   0  0  0  0  0  0  0  0  0  0  0  0
  142.6029  133.5635  148.5428 H   0  0  0  0  0  0  0  0  0  0  0  0
  143.1314  131.9820  147.9771 H   0  0  0  0  0  0  0  0  0  0  0  0
  144.1650  133.3897  147.7438 H   0  0  0  0  0  0  0  0  0  0  0  0
  143.7569  134.5903  150.6482 H   0  0  0  0  0  0  0  0  0  0  0  0
  145.2742  134.4847  149.7842 H   0  0  0  0  0  0  0  0  0  0  0  0
  150.1296  136.1209  154.6516 H   0  0  0  0  0  0  0  0  0  0  0  0
  151.9297  137.7432  154.6659 H   0  0  0  0  0  0  0  0  0  0  0  0
  1  2  1  0  0  0  0
  1 25  1  0  0  0  0
  1 26  1  0  0  0  0
  1 27  1  0  0  0  0
  2  3  1  0  0  0  0
  3  4  1  0  0  0  0
  3 28  1  0  0  0  0
  3 29  1  0  0  0  0
  4  5  1  0  0  0  0
  4 30  1  0  0  0  0
  4 31  1  0  0  0  0
  5 23  1  0  0  0  0
  5  6  1  0  0  0  0
  6  7  2  0  0  0  0
  7  8  1  0  0  0  0
  7 21  1  0  0  0  0
  8  9  2  0  0  0  0
  8 10  1  0  0  0  0
 10 11  1  0  0  0  0
 10 32  1  0  0  0  0
 11 12  1  0  0  0  0
 11 33  1  0  0  0  0
 11 34  1  0  0  0  0
 12 13  1  0  0  0  0
 12 35  1  0  0  0  0
 12 36  1  0  0  0  0
 13 20  1  0  0  0  0
 13 14  1  0  0  0  0
 14 15  1  0  0  0  0
 14 37  1  0  0  0  0
 14 38  1  0  0  0  0
 15 16  1  0  0  0  0
 15 17  1  0  0  0  0
 15 39  1  0  0  0  0
 16 40  1  0  0  0  0
 16 41  1  0  0  0  0
 16 42  1  0  0  0  0
 17 18  1  0  0  0  0
 18 19  1  0  0  0  0
 18 20  1  0  0  0  0
 18 43  1  0  0  0  0
 19 44  1  0  0  0  0
 19 45  1  0  0  0  0
 19 46  1  0  0  0  0
 20 47  1  0  0  0  0
 20 48  1  0  0  0  0
 21 22  2  0  0  0  0
 21 49  1  0  0  0  0
 22 23  1  0  0  0  0
 22 50  1  0  0  0  0
 23 24  2  0  0  0  0
M  END
> <s_m_source_file>
AV-unprocessed.smi

> <i_m_source_file_index>
2001

> <i_lp_mmshare_version>
43012

> <i_f3d_flags>
0

> <s_epik_input>
W0NIM11PW0NIMl1bQ0gyXW4xbmMoW2NIXVtjSF1jMT1PKUMoPU8pW05IXVtDSDJdW0NIMl1OMltDSDJdW0NAQEhdKFtDSDNdKU9bQ0BASF0oW0NIM10pW0NIMl0y

> <s_epik_cmdline>
J2VwaWtfcHl0aG9uJywgJy1waCcsICc3LjAnLCAnLXRuJywgJzgnLCAnLW1hJywgJzIwMCcsICctbWV0YWxfYmluZGluZycsICctaW1hZScsICc8aW5maWxlLm1hZT4nLCAnLW9tYWUnLCAnPG91dGZpbGUubWFlPic=

> <r_lp_tautomer_probability>
1

> <r_epik_Ionization_Penalty>
0.206669

> <r_epik_Ionization_Penalty_Charging>
5.55992e-09

> <r_epik_Ionization_Penalty_Neutral>
0.206669

> <r_epik_State_Penalty>
0.196651

> <r_epik_Charging_Adjusted_Penalty>
0.196651

> <i_epik_Tot_Q>
0

> <i_epik_Tot_abs_Q>
0

> <r_epik_Metal_State_Penalty>
0.198372

> <b_epik_Metal_Only>
0

> <s_lp_Force_Field>
OPLS_2005

> <r_lp_Energy>
41.2012

> <b_lp_Chiralities_Consistent>
1

> <s_lp_Variant>
AV-unprocessed.smi:2001-3

> <Gold.Version>
5.8.1

> <Gold.Id.Protein>
6NUR|6NUR_protein|mol2

> <Gold.PLP.Fitness>
41.9386

> <Gold.PLP.PLP>
-39.0966

> <Gold.PLP.part.hbond>
-2.2365

> <Gold.PLP.part.metal>
0.0000

> <Gold.PLP.part.buried>
-3.6506

> <Gold.PLP.part.nonpolar>
-34.8363

> <Gold.PLP.part.repulsive>
0.5235

> <Gold.PLP.ligand.clash>
0.0000

> <Gold.PLP.ligand.torsion>
1.5501

> <Gold.PLP.Chemscore.Hbond>
1.9440

> <Gold.PLP.Chemscore.CHOScore>
0.0000

> <Gold.PLP.Chemscore.Metal>
0.0000

> <Gold.Chemscore.Hbonds>
donor molecule, donor type, donor heavy atom, donor atom, acceptor molecule, acceptor atom, score
      L1  H    10    32       P1  7948  1.00
      P1  H  7989  7998       L1    24  0.94

> <Gold.PLP.Chemscore.Internal.Correction>
0.1103

> <Gold.Rescore>
     Score         DG    S(hbond)    S(metal)    S(lipo)     H(rot)  DE(clash)    DE(int)     intcor
     16.46     -18.34       1.82        0.00     101.62       2.00       0.30       1.58       ----

> <Gold.Chemscore.Fitness>
16.4551

> <Gold.Chemscore.DG>
-18.3369

> <Gold.Chemscore.ZeroCoef>
-5.4800

> <Gold.Chemscore.Hbond>
1.8240

> <Gold.Chemscore.Metal>
0.0000

> <Gold.Chemscore.Lipo>
101.6239

> <Gold.Chemscore.Internal_Hbond>
0.0000

> <Gold.Chemscore.DEClash>
0.3012

> <Gold.Chemscore.DEInternal>
1.5806

> <Gold.Chemscore.Rot>
2.0020

> <Gold.Chemscore.Internal.Correction>
   9.000000E+99

> <Gold.Chemscore.Hbonds>
donor molecule, donor type, donor heavy atom, donor atom, acceptor molecule, acceptor atom, score
      L1  H    10    32       P1  7948  0.97
      P1  H  7989  7998       L1    24  0.45

> <Gold.Chemscore.Hbond.Weighted>
-6.0921

> <Gold.Chemscore.Metal.Weighted>
-0.0000

> <Gold.Chemscore.Lipo.Weighted>
-11.8900

> <Gold.Chemscore.Internal_Hbond.Weighted>
0.0000

> <Gold.Chemscore.DEClash.Weighted>
0.3012

> <Gold.Chemscore.DEInternal.Weighted>
1.5806

> <Gold.Chemscore.Rot.Weighted>
5.1252

> <Gold.Chemscore.Internal.Correction.Weighted>
   9.000000E+99

> <Gold.Protein.RotatedTorsions>
[ 6907 6896 6895 6894 ] final  148.18 input  -60.11 | X-H torsion
[ 7974 7965 7964 7962 ] final -123.30 input  175.53 | X-H torsion
[ 8008 7997 7996 7995 ] final  -78.01 input   59.86 | X-H torsion
[ 10167 10162 10161 10158 ] final   61.39 input  -65.29 | X-H torsion
[ 10718 10713 10712 10709 ] final  105.61 input   66.30 | X-H torsion
[ 10763 10752 10751 10750 ] final  -57.58 input  -60.55 | X-H torsion
[ 11005 11000 10999 10996 ] final  -82.76 input  -57.11 | X-H torsion

> <Gold.Protein.ActiveResidues>
 VAL166  LYS551  ARG553  GLY616  TRP617  ASP618  TYR619  PRO620  LYS621  CYS622 
 ASP623  PHE694  ASN695  SER759  ASP760  ASP761  ALA762  ILE779  LEU786  VAL792 
 PHE793  MET794  SER795  GLU796  ALA797  LYS798  CYS799  TRP800  GLU811  SER814 

> <Gold.Protein.RotatedAtoms>
  152.1448  133.4486  159.4784 H   0  0  0  0  0  0  0  0  0  0  0  0  # atno 6907 bound_to 6896
  150.6889  134.2261  159.4425 H   0  0  0  0  0  0  0  0  0  0  0  0  # atno 6908 bound_to 6896
  152.0154  134.9852  160.0620 H   0  0  0  0  0  0  0  0  0  0  0  0  # atno 6909 bound_to 6896
  145.0202  140.7981  143.4385 H   0  0  0  0  0  0  0  0  0  0  0  0  # atno 7974 bound_to 7965
  154.5649  140.0701  156.8876 H   0  0  0  0  0  0  0  0  0  0  0  0  # atno 8008 bound_to 7997
  155.2742  140.3367  155.4245 H   0  0  0  0  0  0  0  0  0  0  0  0  # atno 8009 bound_to 7997
  156.2072  140.1745  156.7759 H   0  0  0  0  0  0  0  0  0  0  0  0  # atno 8010 bound_to 7997
  140.1553  144.4423  150.6737 H   0  0  0  0  0  0  0  0  0  0  0  0  # atno 10167 bound_to 10162
  157.6699  131.0831  150.5882 H   0  0  0  0  0  0  0  0  0  0  0  0  # atno 10718 bound_to 10713
  154.2247  135.6371  153.5156 H   0  0  0  0  0  0  0  0  0  0  0  0  # atno 10763 bound_to 10752
  152.9961  135.5505  154.6077 H   0  0  0  0  0  0  0  0  0  0  0  0  # atno 10764 bound_to 10752
  154.5545  135.2904  155.0951 H   0  0  0  0  0  0  0  0  0  0  0  0  # atno 10765 bound_to 10752
  141.1661  133.7260  156.8620 H   0  0  0  0  0  0  0  0  0  0  0  0  # atno 11005 bound_to 11000
  145.1906  139.2303  143.5245 LP  0  0  0  0  0  0  0  0  0  0  0  0  # atno 17320 bound_to 7965
  146.3484  140.1701  142.8590 LP  0  0  0  0  0  0  0  0  0  0  0  0  # atno 17321 bound_to 7965
  140.6677  143.2274  151.5702 LP  0  0  0  0  0  0  0  0  0  0  0  0  # atno 17342 bound_to 10162
  139.5406  144.2657  152.1343 LP  0  0  0  0  0  0  0  0  0  0  0  0  # atno 17343 bound_to 10162
  156.6182  130.4398  149.5832 LP  0  0  0  0  0  0  0  0  0  0  0  0  # atno 17370 bound_to 10713
  156.2376  130.6832  151.1525 LP  0  0  0  0  0  0  0  0  0  0  0  0  # atno 17371 bound_to 10713
  140.1842  134.9012  157.2984 LP  0  0  0  0  0  0  0  0  0  0  0  0  # atno 17394 bound_to 11000
  140.2362  134.3850  155.7500 LP  0  0  0  0  0  0  0  0  0  0  0  0  # atno 17395 bound_to 11000

$$$$
