AV-unprocessed.smi:1438|AV-procd|sdf|5868|dock3
  -GOLD-   22720 5543D 1   1.00000     0.00000
 Structure written by MMmdl.
 43 44  0  0  0  0  0  0  0  0  1 V2000
  145.6330  142.6307  157.6028 C   0  0  0  0  0  0  0  0  0  0  0  0
  146.1389  142.9297  156.1824 C   0  0  1  0  0  0  0  0  0  0  0  0
  146.8354  141.7136  155.5588 C   0  0  0  0  0  0  0  0  0  0  0  0
  146.2306  140.6500  155.4212 O   0  0  0  0  0  0  0  0  0  0  0  0
  148.1081  141.8895  155.1706 N   0  0  0  0  0  0  0  0  0  0  0  0
  148.9062  140.8992  154.4596 C   0  0  0  0  0  0  0  0  0  0  0  0
  150.1582  140.5246  155.2301 C   0  0  0  0  0  0  0  0  0  0  0  0
  151.0352  139.5369  154.7428 C   0  0  0  0  0  0  0  0  0  0  0  0
  152.1975  139.2541  155.4827 C   0  0  0  0  0  0  0  0  0  0  0  0
  152.5096  139.8791  156.6374 N   0  0  0  0  0  0  0  0  0  0  0  0
  151.6690  140.8283  157.1198 C   0  0  0  0  0  0  0  0  0  0  0  0
  152.0049  141.4666  158.3339 N   0  0  0  0  0  0  0  0  0  0  0  0
  153.0729  140.8311  159.1027 C   0  0  0  0  0  0  0  0  0  0  0  0
  153.1502  141.4330  160.5166 C   0  0  0  0  0  0  0  0  0  0  0  0
  153.2954  142.8467  160.4328 O   0  0  0  0  0  0  0  0  0  0  0  0
  152.1853  143.4543  159.7808 C   0  0  0  0  0  0  0  0  0  0  0  0
  152.0797  142.9268  158.3399 C   0  0  0  0  0  0  0  0  0  0  0  0
  150.4831  141.1843  156.4333 C   0  0  0  0  0  0  0  0  0  0  0  0
  144.7257  143.4646  155.1066 S   0  0  0  0  0  0  0  0  0  0  0  0
  144.1201  144.9942  155.9383 C   0  0  0  0  0  0  0  0  0  0  0  0
  145.2467  143.8417  153.7835 O   0  0  0  0  0  0  0  0  0  0  0  0
  143.6720  142.4426  155.2005 O   0  0  0  0  0  0  0  0  0  0  0  0
  146.4443  142.2964  158.2506 H   0  0  0  0  0  0  0  0  0  0  0  0
  144.8643  141.8569  157.6010 H   0  0  0  0  0  0  0  0  0  0  0  0
  145.1993  143.5227  158.0552 H   0  0  0  0  0  0  0  0  0  0  0  0
  146.8395  143.7641  156.2297 H   0  0  0  0  0  0  0  0  0  0  0  0
  148.5360  142.7901  155.3283 H   0  0  0  0  0  0  0  0  0  0  0  0
  148.2977  140.0066  154.3132 H   0  0  0  0  0  0  0  0  0  0  0  0
  149.1698  141.2563  153.4625 H   0  0  0  0  0  0  0  0  0  0  0  0
  150.8305  139.0157  153.8190 H   0  0  0  0  0  0  0  0  0  0  0  0
  152.8966  138.5067  155.1378 H   0  0  0  0  0  0  0  0  0  0  0  0
  152.9263  139.7553  159.1854 H   0  0  0  0  0  0  0  0  0  0  0  0
  154.0191  140.9828  158.5815 H   0  0  0  0  0  0  0  0  0  0  0  0
  152.2602  141.1808  161.0952 H   0  0  0  0  0  0  0  0  0  0  0  0
  154.0050  141.0203  161.0526 H   0  0  0  0  0  0  0  0  0  0  0  0
  151.2681  143.2543  160.3370 H   0  0  0  0  0  0  0  0  0  0  0  0
  152.3250  144.5354  159.7752 H   0  0  0  0  0  0  0  0  0  0  0  0
  152.9483  143.2464  157.7619 H   0  0  0  0  0  0  0  0  0  0  0  0
  151.1952  143.3523  157.8638 H   0  0  0  0  0  0  0  0  0  0  0  0
  149.8322  141.9604  156.8080 H   0  0  0  0  0  0  0  0  0  0  0  0
  143.2173  145.3417  155.4366 H   0  0  0  0  0  0  0  0  0  0  0  0
  144.8782  145.7749  155.8808 H   0  0  0  0  0  0  0  0  0  0  0  0
  143.8925  144.7800  156.9821 H   0  0  0  0  0  0  0  0  0  0  0  0
  1  2  1  0  0  0  0
  1 23  1  0  0  0  0
  1 24  1  0  0  0  0
  1 25  1  0  0  0  0
  2  3  1  0  0  0  0
  2 19  1  0  0  0  0
  2 26  1  0  0  0  0
  3  4  2  0  0  0  0
  3  5  1  0  0  0  0
  5  6  1  0  0  0  0
  5 27  1  0  0  0  0
  6  7  1  0  0  0  0
  6 28  1  0  0  0  0
  6 29  1  0  0  0  0
  7 18  1  0  0  0  0
  7  8  2  0  0  0  0
  8  9  1  0  0  0  0
  8 30  1  0  0  0  0
  9 10  2  0  0  0  0
  9 31  1  0  0  0  0
 10 11  1  0  0  0  0
 11 12  1  0  0  0  0
 11 18  2  0  0  0  0
 12 17  1  0  0  0  0
 12 13  1  0  0  0  0
 13 14  1  0  0  0  0
 13 32  1  0  0  0  0
 13 33  1  0  0  0  0
 14 15  1  0  0  0  0
 14 34  1  0  0  0  0
 14 35  1  0  0  0  0
 15 16  1  0  0  0  0
 16 17  1  0  0  0  0
 16 36  1  0  0  0  0
 16 37  1  0  0  0  0
 17 38  1  0  0  0  0
 17 39  1  0  0  0  0
 18 40  1  0  0  0  0
 19 20  1  0  0  0  0
 19 21  2  0  0  0  0
 19 22  2  0  0  0  0
 20 41  1  0  0  0  0
 20 42  1  0  0  0  0
 20 43  1  0  0  0  0
M  END
> <s_m_source_file>
AV-unprocessed.smi

> <i_m_source_file_index>
1438

> <i_lp_mmshare_version>
43012

> <i_f3d_flags>
0

> <s_epik_input>
W0NIM11TKD1PKSg9TylbQ0BIXShbQ0gzXSlDKD1PKVtOSF1bQ0gyXWMxW2NIXVtjSF1uYyhbY0hdMSlOMltDSDJdW0NIMl1PW0NIMl1bQ0gyXTI=

> <s_epik_cmdline>
J2VwaWtfcHl0aG9uJywgJy1waCcsICc3LjAnLCAnLXRuJywgJzgnLCAnLW1hJywgJzIwMCcsICctbWV0YWxfYmluZGluZycsICctaW1hZScsICc8aW5maWxlLm1hZT4nLCAnLW9tYWUnLCAnPG91dGZpbGUubWFlPic=

> <r_lp_tautomer_probability>
1

> <r_epik_Ionization_Penalty>
0.00387635

> <r_epik_Ionization_Penalty_Charging>
0

> <r_epik_Ionization_Penalty_Neutral>
0.00387635

> <r_epik_State_Penalty>
0.0027681

> <r_epik_Charging_Adjusted_Penalty>
0.0027681

> <i_epik_Tot_Q>
0

> <i_epik_Tot_abs_Q>
0

> <r_epik_Metal_State_Penalty>
-0

> <b_epik_Metal_Only>
0

> <s_lp_Force_Field>
OPLS_2005

> <r_lp_Energy>
13.2689

> <b_lp_Chiralities_Consistent>
1

> <s_lp_Variant>
AV-unprocessed.smi:1438-2

> <Gold.Version>
5.8.1

> <Gold.Id.Protein>
6NUR|6NUR_protein|mol2

> <Gold.PLP.Fitness>
42.7368

> <Gold.PLP.PLP>
-36.8508

> <Gold.PLP.part.hbond>
-2.0000

> <Gold.PLP.part.metal>
0.0000

> <Gold.PLP.part.buried>
-4.3499

> <Gold.PLP.part.nonpolar>
-30.8730

> <Gold.PLP.part.repulsive>
0.5530

> <Gold.PLP.ligand.clash>
0.0000

> <Gold.PLP.ligand.torsion>
0.2987

> <Gold.PLP.Chemscore.Hbond>
2.0000

> <Gold.PLP.Chemscore.CHOScore>
0.0000

> <Gold.PLP.Chemscore.Metal>
0.0000

> <Gold.Chemscore.Hbonds>
donor molecule, donor type, donor heavy atom, donor atom, acceptor molecule, acceptor atom, score
      L1  H     5    27       P1  8028  1.00
      P1  H  7997  8008       L1    10  0.90

> <Gold.PLP.Chemscore.Internal.Correction>
0.4835

> <Gold.Rescore>
     Score         DG    S(hbond)    S(metal)    S(lipo)     H(rot)  DE(clash)    DE(int)     intcor
     15.36     -15.82       1.71        0.00      84.98       2.08       0.06       0.40       ----

> <Gold.Chemscore.Fitness>
15.3615

> <Gold.Chemscore.DG>
-15.8244

> <Gold.Chemscore.ZeroCoef>
-5.4800

> <Gold.Chemscore.Hbond>
1.7119

> <Gold.Chemscore.Metal>
0.0000

> <Gold.Chemscore.Lipo>
84.9759

> <Gold.Chemscore.Internal_Hbond>
0.0000

> <Gold.Chemscore.DEClash>
0.0580

> <Gold.Chemscore.DEInternal>
0.4049

> <Gold.Chemscore.Rot>
2.0764

> <Gold.Chemscore.Internal.Correction>
   9.000000E+99

> <Gold.Chemscore.Hbonds>
donor molecule, donor type, donor heavy atom, donor atom, acceptor molecule, acceptor atom, score
      L1  H     5    27       P1  8028  0.98
      P1  H  7997  8008       L1    10  0.18

> <Gold.Chemscore.Hbond.Weighted>
-5.7177

> <Gold.Chemscore.Metal.Weighted>
-0.0000

> <Gold.Chemscore.Lipo.Weighted>
-9.9422

> <Gold.Chemscore.Internal_Hbond.Weighted>
0.0000

> <Gold.Chemscore.DEClash.Weighted>
0.0580

> <Gold.Chemscore.DEInternal.Weighted>
0.4049

> <Gold.Chemscore.Rot.Weighted>
5.3155

> <Gold.Chemscore.Internal.Correction.Weighted>
   9.000000E+99

> <Gold.Protein.RotatedTorsions>
[ 6907 6896 6895 6894 ] final -152.45 input  -60.11 | X-H torsion
[ 7974 7965 7964 7962 ] final   63.87 input  175.53 | X-H torsion
[ 8008 7997 7996 7995 ] final  -40.50 input   59.86 | X-H torsion
[ 10167 10162 10161 10158 ] final   87.64 input  -65.29 | X-H torsion
[ 10718 10713 10712 10709 ] final   76.69 input   66.30 | X-H torsion
[ 10763 10752 10751 10750 ] final   68.35 input  -60.55 | X-H torsion
[ 11005 11000 10999 10996 ] final  -90.26 input  -57.11 | X-H torsion

> <Gold.Protein.ActiveResidues>
 VAL166  LYS551  ARG553  GLY616  TRP617  ASP618  TYR619  PRO620  LYS621  CYS622 
 ASP623  PHE694  ASN695  SER759  ASP760  ASP761  ALA762  ILE779  LEU786  VAL792 
 PHE793  MET794  SER795  GLU796  ALA797  LYS798  CYS799  TRP800  GLU811  SER814 

> <Gold.Protein.RotatedAtoms>
  151.2279  133.4466  159.2602 H   0  0  0  0  0  0  0  0  0  0  0  0  # atno 6907 bound_to 6896
  151.0822  134.9865  159.8372 H   0  0  0  0  0  0  0  0  0  0  0  0  # atno 6908 bound_to 6896
  152.5425  134.2218  159.8843 H   0  0  0  0  0  0  0  0  0  0  0  0  # atno 6909 bound_to 6896
  145.8568  139.3289  143.0842 H   0  0  0  0  0  0  0  0  0  0  0  0  # atno 7974 bound_to 7965
  154.4011  140.1524  156.3037 H   0  0  0  0  0  0  0  0  0  0  0  0  # atno 8008 bound_to 7997
  155.8678  140.3450  155.5778 H   0  0  0  0  0  0  0  0  0  0  0  0  # atno 8009 bound_to 7997
  155.7808  140.0843  157.2050 H   0  0  0  0  0  0  0  0  0  0  0  0  # atno 8010 bound_to 7997
  139.8753  144.6470  150.8903 H   0  0  0  0  0  0  0  0  0  0  0  0  # atno 10167 bound_to 10162
  157.6683  130.9786  150.1534 H   0  0  0  0  0  0  0  0  0  0  0  0  # atno 10718 bound_to 10713
  153.0231  135.5250  154.7121 H   0  0  0  0  0  0  0  0  0  0  0  0  # atno 10763 bound_to 10752
  154.6200  135.2888  155.0339 H   0  0  0  0  0  0  0  0  0  0  0  0  # atno 10764 bound_to 10752
  154.1329  135.6590  153.4978 H   0  0  0  0  0  0  0  0  0  0  0  0  # atno 10765 bound_to 10752
  141.1569  133.7681  156.9711 H   0  0  0  0  0  0  0  0  0  0  0  0  # atno 11005 bound_to 11000
  145.9294  140.9059  143.0364 LP  0  0  0  0  0  0  0  0  0  0  0  0  # atno 17320 bound_to 7965
  144.6727  140.1397  143.7438 LP  0  0  0  0  0  0  0  0  0  0  0  0  # atno 17321 bound_to 7965
  140.7754  143.3630  151.1792 LP  0  0  0  0  0  0  0  0  0  0  0  0  # atno 17342 bound_to 10162
  139.7246  143.9169  152.2998 LP  0  0  0  0  0  0  0  0  0  0  0  0  # atno 17343 bound_to 10162
  156.2328  130.3683  149.8426 LP  0  0  0  0  0  0  0  0  0  0  0  0  # atno 17370 bound_to 10713
  156.6248  130.8641  151.3483 LP  0  0  0  0  0  0  0  0  0  0  0  0  # atno 17371 bound_to 10713
  140.1128  134.9466  157.2091 LP  0  0  0  0  0  0  0  0  0  0  0  0  # atno 17394 bound_to 11000
  140.3171  134.2958  155.7254 LP  0  0  0  0  0  0  0  0  0  0  0  0  # atno 17395 bound_to 11000

$$$$
