#       Name:                AV-unprocessed.smi:907
#       Creating user name   scv26
#       Creation time:       Fri Mar 27 02:00:26 2020


#       File generated by GOLD software.
#

@<TRIPOS>MOLECULE
AV-unprocessed.smi:907
    56    59     1
SMALL
NO_CHARGES


@<TRIPOS>ATOM
      1 ****         1.1697   0.9991  -2.7098 O.2            1 S1                 0.0000
      2 ****         0.7775   0.0210  -2.0727 C.2            1 S1                 0.0000
      3 ****         1.5930  -0.9975  -1.7559 N.am           1 S1                 0.0000
      4 ****         3.0087  -1.0616  -2.0913 C.3            1 S1                 0.0000
      5 ****         3.6706  -2.2647  -1.4051 C.3            1 S1                 0.0000
      6 ****         5.1490  -2.3705  -1.7280 C.ar           1 S1                 0.0000
      7 ****         5.6122  -3.2905  -2.6926 C.ar           1 S1                 0.0000
      8 ****         6.9939  -3.3433  -2.9596 C.ar           1 S1                 0.0000
      9 ****         7.8544  -2.4786  -2.2561 C.ar           1 S1                 0.0000
     10 ****         7.2924  -1.5957  -1.3125 C.ar           1 S1                 0.0000
     11 ****         5.9692  -1.5373  -1.0488 N.ar           1 S1                 0.0000
     12 ****        -0.5065  -0.1298  -1.6605 N.am           1 S1                 0.0000
     13 ****        -1.0103  -1.1383  -0.7204 C.3            1 S1                 0.0000
     14 ****        -1.3177  -0.4498   0.6202 C.3            1 S1                 0.0000
     15 ****        -2.2864   0.6765   0.4647 N.4            1 S1                 1.0000
     16 ****        -2.5815   1.3341   1.7751 C.3            1 S1                 0.0000
     17 ****        -3.3267   0.3779   2.7450 C.3            1 S1                 0.0000
     18 ****        -4.5768   1.1738   3.1532 C.3            1 S1                 0.0000
     19 ****        -4.1660   2.3516   4.0518 C.3            1 S1                 0.0000
     20 ****        -3.4839   3.3058   3.0565 C.3            1 S1                 0.0000
     21 ****        -3.5675   2.5358   1.7229 C.3            1 S1                 0.0000
     22 ****        -4.9326   1.8690   1.8460 C.3            1 S1                 0.0000
     23 ****        -1.8799   1.6163  -0.6222 C.3            1 S1                 0.0000
     24 ****        -1.5351   0.8761  -1.9287 C.3            1 S1                 0.0000
     25 ****         1.2070  -1.7790  -1.2467 H              1 S1                 0.0000
     26 ****         3.1182  -1.1384  -3.1741 H              1 S1                 0.0000
     27 ****         3.5000  -0.1379  -1.7806 H              1 S1                 0.0000
     28 ****         3.5512  -2.1900  -0.3230 H              1 S1                 0.0000
     29 ****         3.1712  -3.1869  -1.7056 H              1 S1                 0.0000
     30 ****         4.9271  -3.9394  -3.2181 H              1 S1                 0.0000
     31 ****         7.3865  -4.0335  -3.6917 H              1 S1                 0.0000
     32 ****         8.9191  -2.4909  -2.4355 H              1 S1                 0.0000
     33 ****         7.9223  -0.9180  -0.7556 H              1 S1                 0.0000
     34 ****        -1.9188  -1.5854  -1.1268 H              1 S1                 0.0000
     35 ****        -0.3275  -1.9719  -0.5565 H              1 S1                 0.0000
     36 ****        -1.6995  -1.1957   1.3160 H              1 S1                 0.0000
     37 ****        -0.3912  -0.0684   1.0527 H              1 S1                 0.0000
     38 ****        -1.6338   1.6603   2.2074 H              1 S1                 0.0000
     39 ****        -3.6436  -0.5408   2.2496 H              1 S1                 0.0000
     40 ****        -2.7141   0.0958   3.6021 H              1 S1                 0.0000
     41 ****        -5.3690   0.5557   3.5769 H              1 S1                 0.0000
     42 ****        -5.0410   2.8245   4.4994 H              1 S1                 0.0000
     43 ****        -3.5005   2.0439   4.8592 H              1 S1                 0.0000
     44 ****        -4.0341   4.2457   2.9943 H              1 S1                 0.0000
     45 ****        -2.4577   3.5418   3.3408 H              1 S1                 0.0000
     46 ****        -3.4616   3.2125   0.8783 H              1 S1                 0.0000
     47 ****        -5.1524   1.1774   1.0307 H              1 S1                 0.0000
     48 ****        -5.7549   2.5801   1.9445 H              1 S1                 0.0000
     49 ****        -2.6843   2.3112  -0.8529 H              1 S1                 0.0000
     50 ****        -1.0244   2.2072  -0.2904 H              1 S1                 0.0000
     51 ****        -1.2352   1.5934  -2.6943 H              1 S1                 0.0000
     52 ****        -2.4243   0.3828  -2.3237 H              1 S1                 0.0000
     53 ****        -3.1540   0.2628   0.1543 H              1 S1                 0.0000
     54 ****         2.1227   1.0521  -3.0082 LP             1 S1                 0.0000
     55 ****         0.5352   1.7404  -2.9288 LP             1 S1                 0.0000
     56 ****         5.6068  -0.8970  -0.3715 LP             1 S1                 0.0000
@<TRIPOS>BOND
    1    1    2 2     
    2    2    3 am    
    3    2   12 am    
    4    3    4 1     
    5    3   25 1     
    6    4    5 1     
    7    4   26 1     
    8    4   27 1     
    9    5    6 1     
   10    5   28 1     
   11    5   29 1     
   12    6   11 ar    
   13    6    7 ar    
   14    7    8 ar    
   15    7   30 1     
   16    8    9 ar    
   17    8   31 1     
   18    9   10 ar    
   19    9   32 1     
   20   10   11 ar    
   21   10   33 1     
   22   12   24 1     
   23   12   13 1     
   24   13   14 1     
   25   13   34 1     
   26   13   35 1     
   27   14   15 1     
   28   14   36 1     
   29   14   37 1     
   30   15   16 1     
   31   15   23 1     
   32   15   53 1     
   33   16   21 1     
   34   16   17 1     
   35   16   38 1     
   36   17   18 1     
   37   17   39 1     
   38   17   40 1     
   39   18   22 1     
   40   18   19 1     
   41   18   41 1     
   42   19   20 1     
   43   19   42 1     
   44   19   43 1     
   45   20   21 1     
   46   20   44 1     
   47   20   45 1     
   48   21   22 1     
   49   21   46 1     
   50   22   47 1     
   51   22   48 1     
   52   23   24 1     
   53   23   49 1     
   54   23   50 1     
   55   24   51 1     
   56   24   52 1     
   57    1   54 1     
   58    1   55 1     
   59   11   56 1     
@<TRIPOS>SUBSTRUCTURE
      1 S1             1
@<TRIPOS>SET
LONE_PAIRS      STATIC     ATOMS    <user>   **** ""
3 54 55 56
DONOR_HYDROGENS      STATIC     ATOMS    <user>   **** ""
2 25 53
ATOM$BLUE        STATIC     ATOMS    COLORGROUP SYSTEM
3 54 55 56
ATOM$RED        STATIC     ATOMS    COLORGROUP SYSTEM
2 25 53
