AV-unprocessed.smi:419|AV-procd|sdf|2531|dock6
  -GOLD-   2262022493D 1   1.00000     0.00000
 Structure written by MMmdl.
 44 46  0  0  0  0  0  0  0  0  1 V2000
  143.1687  144.8700  154.7711 C   0  0  0  0  0  0  0  0  0  0  0  0
  143.6263  144.0753  155.8556 O   0  0  0  0  0  0  0  0  0  0  0  0
  144.7645  143.3200  155.6710 C   0  0  0  0  0  0  0  0  0  0  0  0
  145.4117  143.1442  154.4233 C   0  0  0  0  0  0  0  0  0  0  0  0
  146.5715  142.3511  154.3278 C   0  0  0  0  0  0  0  0  0  0  0  0
  147.1132  141.7183  155.4639 C   0  0  0  0  0  0  0  0  0  0  0  0
  148.2494  140.9600  155.2782 O   0  0  0  0  0  0  0  0  0  0  0  0
  148.8860  140.4096  156.4241 C   0  0  0  0  0  0  0  0  0  0  0  0
  150.4060  140.3856  156.1908 C   0  0  1  0  0  0  0  0  0  0  0  0
  150.6196  139.9938  154.8489 O   0  0  0  0  0  0  0  0  0  0  0  0
  151.0344  141.7821  156.3779 C   0  0  0  0  0  0  0  0  0  0  0  0
  151.7716  141.8822  157.6369 N   0  0  0  0  0  0  0  0  0  0  0  0
  152.6040  140.9504  158.1592 C   0  0  0  0  0  0  0  0  0  0  0  0
  152.8792  139.8634  157.6510 O   0  0  0  0  0  0  0  0  0  0  0  0
  153.0817  141.4254  159.3330 N   0  0  0  0  0  0  0  0  0  0  0  0
  154.0113  140.7578  160.2357 C   0  0  0  0  0  0  0  0  0  0  0  0
  152.5517  142.7016  159.5621 C   0  0  0  0  0  0  0  0  0  0  0  0
  152.7471  143.6050  160.6208 C   0  0  0  0  0  0  0  0  0  0  0  0
  152.0573  144.8382  160.5529 C   0  0  0  0  0  0  0  0  0  0  0  0
  151.2083  145.1367  159.4555 C   0  0  0  0  0  0  0  0  0  0  0  0
  151.0308  144.2086  158.4028 C   0  0  0  0  0  0  0  0  0  0  0  0
  151.7265  142.9903  158.4956 C   0  0  0  0  0  0  0  0  0  0  0  0
  146.4666  141.8952  156.7117 C   0  0  0  0  0  0  0  0  0  0  0  0
  145.3064  142.6874  156.8071 C   0  0  0  0  0  0  0  0  0  0  0  0
  142.2642  145.3998  155.0698 H   0  0  0  0  0  0  0  0  0  0  0  0
  142.9198  144.2564  153.9043 H   0  0  0  0  0  0  0  0  0  0  0  0
  143.9096  145.6177  154.4851 H   0  0  0  0  0  0  0  0  0  0  0  0
  145.0382  143.6073  153.5228 H   0  0  0  0  0  0  0  0  0  0  0  0
  147.0521  142.2269  153.3684 H   0  0  0  0  0  0  0  0  0  0  0  0
  148.6394  140.9680  157.3294 H   0  0  0  0  0  0  0  0  0  0  0  0
  148.5258  139.3877  156.5538 H   0  0  0  0  0  0  0  0  0  0  0  0
  150.8682  139.6677  156.8699 H   0  0  0  0  0  0  0  0  0  0  0  0
  149.9239  139.4085  154.5923 H   0  0  0  0  0  0  0  0  0  0  0  0
  151.6679  142.0485  155.5311 H   0  0  0  0  0  0  0  0  0  0  0  0
  150.2482  142.5386  156.4003 H   0  0  0  0  0  0  0  0  0  0  0  0
  153.6553  140.8227  161.2642 H   0  0  0  0  0  0  0  0  0  0  0  0
  154.9916  141.2316  160.1821 H   0  0  0  0  0  0  0  0  0  0  0  0
  154.1298  139.7011  159.9917 H   0  0  0  0  0  0  0  0  0  0  0  0
  153.3964  143.3710  161.4515 H   0  0  0  0  0  0  0  0  0  0  0  0
  152.1798  145.5618  161.3454 H   0  0  0  0  0  0  0  0  0  0  0  0
  150.6923  146.0851  159.4225 H   0  0  0  0  0  0  0  0  0  0  0  0
  150.3892  144.4332  157.5639 H   0  0  0  0  0  0  0  0  0  0  0  0
  146.8386  141.4327  157.6131 H   0  0  0  0  0  0  0  0  0  0  0  0
  144.8254  142.8095  157.7665 H   0  0  0  0  0  0  0  0  0  0  0  0
  1  2  1  0  0  0  0
  1 25  1  0  0  0  0
  1 26  1  0  0  0  0
  1 27  1  0  0  0  0
  2  3  1  0  0  0  0
  3 24  1  0  0  0  0
  3  4  2  0  0  0  0
  4  5  1  0  0  0  0
  4 28  1  0  0  0  0
  5  6  2  0  0  0  0
  5 29  1  0  0  0  0
  6  7  1  0  0  0  0
  6 23  1  0  0  0  0
  7  8  1  0  0  0  0
  8  9  1  0  0  0  0
  8 30  1  0  0  0  0
  8 31  1  0  0  0  0
  9 10  1  0  0  0  0
  9 11  1  0  0  0  0
  9 32  1  0  0  0  0
 10 33  1  0  0  0  0
 11 12  1  0  0  0  0
 11 34  1  0  0  0  0
 11 35  1  0  0  0  0
 12 22  1  0  0  0  0
 12 13  1  0  0  0  0
 13 14  2  0  0  0  0
 13 15  1  0  0  0  0
 15 16  1  0  0  0  0
 15 17  1  0  0  0  0
 16 36  1  0  0  0  0
 16 37  1  0  0  0  0
 16 38  1  0  0  0  0
 17 22  2  0  0  0  0
 17 18  1  0  0  0  0
 18 19  2  0  0  0  0
 18 39  1  0  0  0  0
 19 20  1  0  0  0  0
 19 40  1  0  0  0  0
 20 21  2  0  0  0  0
 20 41  1  0  0  0  0
 21 22  1  0  0  0  0
 21 42  1  0  0  0  0
 23 24  2  0  0  0  0
 23 43  1  0  0  0  0
 24 44  1  0  0  0  0
M  END
> <s_m_source_file>
AV-unprocessed.smi

> <i_m_source_file_index>
419

> <i_lp_mmshare_version>
43012

> <i_f3d_flags>
0

> <s_epik_input>
W0NIM11PYzFbY0hdW2NIXWMoW2NIXVtjSF0xKU9bQ0gyXVtDQEhdKFtPSF0pW0NIMl1uKGMoPU8pbjJbQ0gzXSljKGMyMylbY0hdW2NIXVtjSF1bY0hdMw==

> <s_epik_cmdline>
J2VwaWtfcHl0aG9uJywgJy1waCcsICc3LjAnLCAnLXRuJywgJzgnLCAnLW1hJywgJzIwMCcsICctbWV0YWxfYmluZGluZycsICctaW1hZScsICc8aW5maWxlLm1hZT4nLCAnLW9tYWUnLCAnPG91dGZpbGUubWFlPic=

> <r_lp_tautomer_probability>
1

> <r_epik_Ionization_Penalty>
2.40131e-06

> <r_epik_Ionization_Penalty_Charging>
2.01037e-09

> <r_epik_Ionization_Penalty_Neutral>
2.3993e-06

> <r_epik_State_Penalty>
-0

> <r_epik_Charging_Adjusted_Penalty>
2.01037e-09

> <i_epik_Tot_Q>
0

> <i_epik_Tot_abs_Q>
0

> <r_epik_Metal_State_Penalty>
-0

> <b_epik_Metal_Only>
0

> <s_lp_Force_Field>
OPLS_2005

> <r_lp_Energy>
50.9462

> <b_lp_Chiralities_Consistent>
1

> <s_lp_Variant>
AV-unprocessed.smi:419-2

> <Gold.Version>
5.8.1

> <Gold.Id.Protein>
6NUR|6NUR_protein|mol2

> <Gold.PLP.Fitness>
56.9209

> <Gold.PLP.PLP>
-53.5311

> <Gold.PLP.part.hbond>
-2.0000

> <Gold.PLP.part.metal>
0.0000

> <Gold.PLP.part.buried>
-9.3267

> <Gold.PLP.part.nonpolar>
-42.3171

> <Gold.PLP.part.repulsive>
0.1902

> <Gold.PLP.ligand.clash>
0.0000

> <Gold.PLP.ligand.torsion>
1.3556

> <Gold.PLP.Chemscore.Hbond>
2.0000

> <Gold.PLP.Chemscore.CHOScore>
0.0000

> <Gold.PLP.Chemscore.Metal>
0.0000

> <Gold.Chemscore.Hbonds>
donor molecule, donor type, donor heavy atom, donor atom, acceptor molecule, acceptor atom, score
      P1  H  7989  7998       L1    10  1.00
      P1  H  7997  8010       L1    14  1.00

> <Gold.PLP.Chemscore.Internal.Correction>
0.1011

> <Gold.Rescore>
     Score         DG    S(hbond)    S(metal)    S(lipo)     H(rot)  DE(clash)    DE(int)     intcor
     18.00     -20.50       1.72        0.00     131.81       2.40       0.11       2.40       ----

> <Gold.Chemscore.Fitness>
17.9996

> <Gold.Chemscore.DG>
-20.5049

> <Gold.Chemscore.ZeroCoef>
-5.4800

> <Gold.Chemscore.Hbond>
1.7171

> <Gold.Chemscore.Metal>
0.0000

> <Gold.Chemscore.Lipo>
131.8074

> <Gold.Chemscore.Internal_Hbond>
0.0000

> <Gold.Chemscore.DEClash>
0.1072

> <Gold.Chemscore.DEInternal>
2.3981

> <Gold.Chemscore.Rot>
2.3952

> <Gold.Chemscore.Internal.Correction>
   9.000000E+99

> <Gold.Chemscore.Hbonds>
donor molecule, donor type, donor heavy atom, donor atom, acceptor molecule, acceptor atom, score
      P1  H  7989  7998       L1    10  0.97
      P1  H  7997  8010       L1    14  0.59

> <Gold.Chemscore.Hbond.Weighted>
-5.7351

> <Gold.Chemscore.Metal.Weighted>
-0.0000

> <Gold.Chemscore.Lipo.Weighted>
-15.4215

> <Gold.Chemscore.Internal_Hbond.Weighted>
0.0000

> <Gold.Chemscore.DEClash.Weighted>
0.1072

> <Gold.Chemscore.DEInternal.Weighted>
2.3981

> <Gold.Chemscore.Rot.Weighted>
6.1316

> <Gold.Chemscore.Internal.Correction.Weighted>
   9.000000E+99

> <Gold.Protein.RotatedTorsions>
[ 6907 6896 6895 6894 ] final  -50.28 input  -60.11 | X-H torsion
[ 7974 7965 7964 7962 ] final -102.14 input  175.53 | X-H torsion
[ 8008 7997 7996 7995 ] final   58.16 input   59.86 | X-H torsion
[ 10167 10162 10161 10158 ] final -120.34 input  -65.29 | X-H torsion
[ 10718 10713 10712 10709 ] final  114.42 input   66.30 | X-H torsion
[ 10763 10752 10751 10750 ] final -117.89 input  -60.55 | X-H torsion
[ 11005 11000 10999 10996 ] final   -9.29 input  -57.11 | X-H torsion

> <Gold.Protein.ActiveResidues>
 VAL166  LYS551  ARG553  GLY616  TRP617  ASP618  TYR619  PRO620  LYS621  CYS622 
 ASP623  PHE694  ASN695  SER759  ASP760  ASP761  ALA762  ILE779  LEU786  VAL792 
 PHE793  MET794  SER795  GLU796  ALA797  LYS798  CYS799  TRP800  GLU811  SER814 

> <Gold.Protein.RotatedAtoms>
  150.8722  134.8098  159.7162 H   0  0  0  0  0  0  0  0  0  0  0  0  # atno 6907 bound_to 6896
  152.4722  134.4928  159.9710 H   0  0  0  0  0  0  0  0  0  0  0  0  # atno 6908 bound_to 6896
  151.5015  133.3465  159.2905 H   0  0  0  0  0  0  0  0  0  0  0  0  # atno 6909 bound_to 6896
  145.2726  140.9303  143.2977 H   0  0  0  0  0  0  0  0  0  0  0  0  # atno 7974 bound_to 7965
  155.5455  140.3485  155.4456 H   0  0  0  0  0  0  0  0  0  0  0  0  # atno 8008 bound_to 7997
  156.0621  140.1342  156.9955 H   0  0  0  0  0  0  0  0  0  0  0  0  # atno 8009 bound_to 7997
  154.4485  140.0983  156.6517 H   0  0  0  0  0  0  0  0  0  0  0  0  # atno 8010 bound_to 7997
  140.0369  143.5192  152.2149 H   0  0  0  0  0  0  0  0  0  0  0  0  # atno 10167 bound_to 10162
  157.6282  131.0998  150.7183 H   0  0  0  0  0  0  0  0  0  0  0  0  # atno 10718 bound_to 10713
  154.8570  135.4293  154.2052 H   0  0  0  0  0  0  0  0  0  0  0  0  # atno 10763 bound_to 10752
  153.3090  135.6974  153.7139 H   0  0  0  0  0  0  0  0  0  0  0  0  # atno 10764 bound_to 10752
  153.6239  135.3497  155.2994 H   0  0  0  0  0  0  0  0  0  0  0  0  # atno 10765 bound_to 10752
  140.7326  133.8736  155.8904 H   0  0  0  0  0  0  0  0  0  0  0  0  # atno 11005 bound_to 11000
  144.9322  139.4285  143.6489 LP  0  0  0  0  0  0  0  0  0  0  0  0  # atno 17320 bound_to 7965
  146.3242  139.8238  142.8921 LP  0  0  0  0  0  0  0  0  0  0  0  0  # atno 17321 bound_to 7965
  139.6039  144.7590  151.3107 LP  0  0  0  0  0  0  0  0  0  0  0  0  # atno 17342 bound_to 10162
  140.7277  143.6955  150.7887 LP  0  0  0  0  0  0  0  0  0  0  0  0  # atno 17343 bound_to 10162
  156.7527  130.4774  149.5453 LP  0  0  0  0  0  0  0  0  0  0  0  0  # atno 17370 bound_to 10713
  156.1468  130.6282  151.0542 LP  0  0  0  0  0  0  0  0  0  0  0  0  # atno 17371 bound_to 10713
  140.9908  134.1281  157.4410 LP  0  0  0  0  0  0  0  0  0  0  0  0  # atno 17394 bound_to 11000
  139.8823  135.0039  156.6219 LP  0  0  0  0  0  0  0  0  0  0  0  0  # atno 17395 bound_to 11000

$$$$
