#       Name:                AV-unprocessed.smi:1456
#       Creating user name   scv26
#       Creation time:       Fri Mar 27 06:00:21 2020


#       File generated by GOLD software.
#

@<TRIPOS>MOLECULE
AV-unprocessed.smi:1456
    45    46     1
SMALL
NO_CHARGES


@<TRIPOS>ATOM
      1 ****        -0.0035  -1.6771   1.3345 C.3            1 S1                 0.0000
      2 ****        -1.4398  -1.2847   0.9234 C.3            1 S1                 0.0000
      3 ****        -2.3781  -1.8541   2.0051 C.3            1 S1                 0.0000
      4 ****        -1.6420   0.2504   0.8771 C.3            1 S1                 0.0000
      5 ****        -1.0983   0.9448  -0.3864 C.3            1 S1                 0.0000
      6 ****         0.3548   1.1004  -0.3933 N.am           1 S1                 0.0000
      7 ****         1.0498   1.9586   0.3679 C.2            1 S1                 0.0000
      8 ****         0.5254   2.7270   1.1742 O.2            1 S1                 0.0000
      9 ****         2.3696   1.8577   0.1331 N.am           1 S1                 0.0000
     10 ****         3.4273   2.5706   0.7563 C.2            1 S1                 0.0000
     11 ****         3.2563   3.4922   1.7113 N.2            1 S1                 0.0000
     12 ****         4.4709   4.0287   2.1459 C.2            1 S1                 0.0000
     13 ****         5.5645   3.4997   1.5065 C.2            1 S1                 0.0000
     14 ****         5.1096   2.3005   0.3255 S.3            1 S1                 0.0000
     15 ****        -1.6095   0.2288  -1.6471 C.3            1 S1                 0.0000
     16 ****        -1.4156  -1.3099  -1.6583 C.3            1 S1                 0.0000
     17 ****        -2.3378  -1.8967  -2.7447 C.3            1 S1                 0.0000
     18 ****         0.0253  -1.7187  -2.0368 C.3            1 S1                 0.0000
     19 ****        -1.8357  -1.9201  -0.3650 N.4            1 S1                 1.0000
     20 ****         0.2115  -1.3488   2.3521 H              1 S1                 0.0000
     21 ****         0.7675  -1.2377   0.7106 H              1 S1                 0.0000
     22 ****         0.1334  -2.7587   1.3091 H              1 S1                 0.0000
     23 ****        -2.1666  -1.4221   2.9842 H              1 S1                 0.0000
     24 ****        -2.2737  -2.9362   2.0958 H              1 S1                 0.0000
     25 ****        -3.4249  -1.6474   1.7780 H              1 S1                 0.0000
     26 ****        -2.7126   0.4581   0.9115 H              1 S1                 0.0000
     27 ****        -1.2366   0.7122   1.7784 H              1 S1                 0.0000
     28 ****        -1.5088   1.9562  -0.4091 H              1 S1                 0.0000
     29 ****         0.8714   0.5132  -1.0317 H              1 S1                 0.0000
     30 ****         2.6533   1.1876  -0.5661 H              1 S1                 0.0000
     31 ****         4.4645   4.7845   2.9173 H              1 S1                 0.0000
     32 ****         6.6059   3.7418   1.6580 H              1 S1                 0.0000
     33 ****        -2.6774   0.4423  -1.7186 H              1 S1                 0.0000
     34 ****        -1.1683   0.6747  -2.5399 H              1 S1                 0.0000
     35 ****        -2.1115  -1.4809  -3.7275 H              1 S1                 0.0000
     36 ****        -3.3879  -1.6866  -2.5368 H              1 S1                 0.0000
     37 ****        -2.2327  -2.9802  -2.8164 H              1 S1                 0.0000
     38 ****         0.2620  -1.4054  -3.0542 H              1 S1                 0.0000
     39 ****         0.1521  -2.8011  -1.9957 H              1 S1                 0.0000
     40 ****         0.7876  -1.2790  -1.4025 H              1 S1                 0.0000
     41 ****        -1.5548  -2.8902  -0.3523 H              1 S1                 0.0000
     42 ****        -2.8453  -1.8949  -0.3741 H              1 S1                 0.0000
     43 ****        -0.4682   2.7317   1.2869 LP             1 S1                 0.0000
     44 ****         1.0930   3.3465   1.7165 LP             1 S1                 0.0000
     45 ****         2.3641   3.7648   2.0715 LP             1 S1                 0.0000
@<TRIPOS>BOND
    1    1    2 1     
    2    1   20 1     
    3    1   21 1     
    4    1   22 1     
    5    2   19 1     
    6    2    3 1     
    7    2    4 1     
    8    3   23 1     
    9    3   24 1     
   10    3   25 1     
   11    4    5 1     
   12    4   26 1     
   13    4   27 1     
   14    5    6 1     
   15    5   15 1     
   16    5   28 1     
   17    6    7 am    
   18    6   29 1     
   19    7    8 2     
   20    7    9 am    
   21    9   10 1     
   22    9   30 1     
   23   10   14 1     
   24   10   11 2     
   25   11   12 1     
   26   12   13 2     
   27   12   31 1     
   28   13   14 1     
   29   13   32 1     
   30   15   16 1     
   31   15   33 1     
   32   15   34 1     
   33   16   17 1     
   34   16   18 1     
   35   16   19 1     
   36   17   35 1     
   37   17   36 1     
   38   17   37 1     
   39   18   38 1     
   40   18   39 1     
   41   18   40 1     
   42   19   41 1     
   43   19   42 1     
   44    8   43 1     
   45    8   44 1     
   46   11   45 1     
@<TRIPOS>SUBSTRUCTURE
      1 S1             1
@<TRIPOS>SET
LONE_PAIRS      STATIC     ATOMS    <user>   **** ""
3 43 44 45
DONOR_HYDROGENS      STATIC     ATOMS    <user>   **** ""
4 29 30 41 42
ATOM$BLUE        STATIC     ATOMS    COLORGROUP SYSTEM
3 43 44 45
ATOM$RED        STATIC     ATOMS    COLORGROUP SYSTEM
4 29 30 41 42
