AV-unprocessed.smi:13|AV-procd|sdf|73|dock7
  -GOLD-   2262015193D 1   1.00000     0.00000
 Structure written by MMmdl.
 54 58  0  0  0  0  0  0  0  0  1 V2000
  141.5390  135.6183  153.5032 C   0  0  0  0  0  0  0  0  0  0  0  0
  142.3869  136.8765  153.7358 C   0  0  0  0  0  0  0  0  0  0  0  0
  141.4748  138.0735  153.4688 C   0  0  0  0  0  0  0  0  0  0  0  0
  143.1487  136.9044  155.0699 C   0  0  0  0  0  0  0  0  0  0  0  0
  144.3096  136.4293  154.3382 N   0  0  0  0  0  0  0  0  0  0  0  0
  145.5505  136.9469  154.8132 C   0  0  0  0  0  0  0  0  0  0  0  0
  146.5955  136.1146  155.0675 N   0  0  0  0  0  0  0  0  0  0  0  0
  147.7580  136.5830  155.5288 C   0  0  0  0  0  0  0  0  0  0  0  0
  148.0957  137.8416  155.8091 N   0  0  0  0  0  0  0  0  0  0  0  0
  147.0581  138.6910  155.5655 C   0  0  0  0  0  0  0  0  0  0  0  0
  145.7692  138.3294  155.0786 C   0  0  0  0  0  0  0  0  0  0  0  0
  144.9731  139.4634  154.9707 N   0  0  0  0  0  0  0  0  0  0  0  0
  145.7469  140.4375  155.3643 C   0  0  0  0  0  0  0  0  0  0  0  0
  147.0198  140.0648  155.7318 N   0  0  0  0  0  0  0  0  0  0  0  0
  148.0797  140.9395  156.2109 C   0  0  0  0  0  0  0  0  0  0  0  0
  149.2537  141.1005  155.2148 C   0  0  1  0  0  0  0  0  0  0  0  0
  148.8958  142.0621  154.2387 O   0  0  0  0  0  0  0  0  0  0  0  0
  150.5450  141.5473  155.9042 C   0  0  0  0  0  0  0  0  0  0  0  0
  151.4253  140.3041  155.8547 C   0  0  0  0  0  0  0  0  0  0  0  0
  151.0722  139.7260  154.6110 O   0  0  0  0  0  0  0  0  0  0  0  0
  149.6568  139.7889  154.5101 C   0  0  0  0  0  0  0  0  0  0  0  0
  143.7853  136.9393  153.0756 C   0  0  1  0  0  0  0  0  0  0  0  0
  144.1511  136.0512  151.8801 C   0  0  1  0  0  0  0  0  0  0  0  0
  145.6554  135.9682  151.6064 C   0  0  0  0  0  0  0  0  0  0  0  0
  145.8534  134.5820  151.0084 C   0  0  0  0  0  0  0  0  0  0  0  0
  144.4895  133.9095  151.1633 C   0  0  0  0  0  0  0  0  0  0  0  0
  143.8208  134.6952  152.1358 O   0  0  0  0  0  0  0  0  0  0  0  0
  140.7217  135.5539  154.2216 H   0  0  0  0  0  0  0  0  0  0  0  0
  142.1285  134.7072  153.6109 H   0  0  0  0  0  0  0  0  0  0  0  0
  141.0958  135.6034  152.5077 H   0  0  0  0  0  0  0  0  0  0  0  0
  141.9940  139.0170  153.6388 H   0  0  0  0  0  0  0  0  0  0  0  0
  140.6009  138.0654  154.1211 H   0  0  0  0  0  0  0  0  0  0  0  0
  141.1195  138.0832  152.4378 H   0  0  0  0  0  0  0  0  0  0  0  0
  143.2822  137.9097  155.4746 H   0  0  0  0  0  0  0  0  0  0  0  0
  142.7825  136.2018  155.8190 H   0  0  0  0  0  0  0  0  0  0  0  0
  148.5256  135.8424  155.6978 H   0  0  0  0  0  0  0  0  0  0  0  0
  145.4082  141.4630  155.3954 H   0  0  0  0  0  0  0  0  0  0  0  0
  147.6403  141.9119  156.4379 H   0  0  0  0  0  0  0  0  0  0  0  0
  148.4469  140.5439  157.1588 H   0  0  0  0  0  0  0  0  0  0  0  0
  148.8293  142.9049  154.6614 H   0  0  0  0  0  0  0  0  0  0  0  0
  151.0320  142.3485  155.3454 H   0  0  0  0  0  0  0  0  0  0  0  0
  150.3928  141.9072  156.9223 H   0  0  0  0  0  0  0  0  0  0  0  0
  152.4890  140.5369  155.9055 H   0  0  0  0  0  0  0  0  0  0  0  0
  151.1806  139.6161  156.6658 H   0  0  0  0  0  0  0  0  0  0  0  0
  149.2555  138.9202  155.0320 H   0  0  0  0  0  0  0  0  0  0  0  0
  149.3274  139.7299  153.4719 H   0  0  0  0  0  0  0  0  0  0  0  0
  144.0694  137.9830  152.9252 H   0  0  0  0  0  0  0  0  0  0  0  0
  143.6328  136.3718  150.9743 H   0  0  0  0  0  0  0  0  0  0  0  0
  146.0026  136.7588  150.9419 H   0  0  0  0  0  0  0  0  0  0  0  0
  146.2159  136.0463  152.5389 H   0  0  0  0  0  0  0  0  0  0  0  0
  146.1555  134.6235  149.9616 H   0  0  0  0  0  0  0  0  0  0  0  0
  146.6221  134.0390  151.5594 H   0  0  0  0  0  0  0  0  0  0  0  0
  143.9315  133.9468  150.2261 H   0  0  0  0  0  0  0  0  0  0  0  0
  144.5659  132.8679  151.4755 H   0  0  0  0  0  0  0  0  0  0  0  0
  1  2  1  0  0  0  0
  1 28  1  0  0  0  0
  1 29  1  0  0  0  0
  1 30  1  0  0  0  0
  2 22  1  0  0  0  0
  2  3  1  0  0  0  0
  2  4  1  0  0  0  0
  3 31  1  0  0  0  0
  3 32  1  0  0  0  0
  3 33  1  0  0  0  0
  4  5  1  0  0  0  0
  4 34  1  0  0  0  0
  4 35  1  0  0  0  0
  5  6  1  0  0  0  0
  5 22  1  0  0  0  0
  6 11  1  0  0  0  0
  6  7  2  0  0  0  0
  7  8  1  0  0  0  0
  8  9  2  0  0  0  0
  8 36  1  0  0  0  0
  9 10  1  0  0  0  0
 10 14  1  0  0  0  0
 10 11  2  0  0  0  0
 11 12  1  0  0  0  0
 12 13  2  0  0  0  0
 13 14  1  0  0  0  0
 13 37  1  0  0  0  0
 14 15  1  0  0  0  0
 15 16  1  0  0  0  0
 15 38  1  0  0  0  0
 15 39  1  0  0  0  0
 16 21  1  0  0  0  0
 16 17  1  0  0  0  0
 16 18  1  0  0  0  0
 17 40  1  0  0  0  0
 18 19  1  0  0  0  0
 18 41  1  0  0  0  0
 18 42  1  0  0  0  0
 19 20  1  0  0  0  0
 19 43  1  0  0  0  0
 19 44  1  0  0  0  0
 20 21  1  0  0  0  0
 21 45  1  0  0  0  0
 21 46  1  0  0  0  0
 22 23  1  0  0  0  0
 22 47  1  0  0  0  0
 23 27  1  0  0  0  0
 23 24  1  0  0  0  0
 23 48  1  0  0  0  0
 24 25  1  0  0  0  0
 24 49  1  0  0  0  0
 24 50  1  0  0  0  0
 25 26  1  0  0  0  0
 25 51  1  0  0  0  0
 25 52  1  0  0  0  0
 26 27  1  0  0  0  0
 26 53  1  0  0  0  0
 26 54  1  0  0  0  0
M  END
> <s_m_source_file>
AV-unprocessed.smi

> <i_m_source_file_index>
13

> <i_lp_mmshare_version>
43012

> <i_f3d_flags>
0

> <s_epik_input>
TzFbQ0gyXVtDSDJdW0NIMl1bQ0BIXTFbQ0BASF0yTihbQ0gyXUMyKFtDSDNdKVtDSDNdKWMobltjSF1uMyljKGMzNCluW2NIXW40W0NIMl1bQ0BAXTUoW09IXSlbQ0gyXVtDSDJdT1tDSDJdNQ==

> <s_epik_cmdline>
J2VwaWtfcHl0aG9uJywgJy1waCcsICc3LjAnLCAnLXRuJywgJzgnLCAnLW1hJywgJzIwMCcsICctbWV0YWxfYmluZGluZycsICctaW1hZScsICc8aW5maWxlLm1hZT4nLCAnLW9tYWUnLCAnPG91dGZpbGUubWFlPic=

> <r_lp_tautomer_probability>
1

> <r_epik_Ionization_Penalty>
0.00202764

> <r_epik_Ionization_Penalty_Charging>
0

> <r_epik_Ionization_Penalty_Neutral>
0.00202764

> <r_epik_State_Penalty>
0.00134017

> <r_epik_Charging_Adjusted_Penalty>
0.00134017

> <i_epik_Tot_Q>
0

> <i_epik_Tot_abs_Q>
0

> <r_epik_Metal_State_Penalty>
-0

> <b_epik_Metal_Only>
0

> <s_lp_Force_Field>
OPLS_2005

> <r_lp_Energy>
61.4884

> <b_lp_Chiralities_Consistent>
1

> <s_lp_Variant>
AV-unprocessed.smi:13-5

> <Gold.Version>
5.8.1

> <Gold.Id.Protein>
6NUR|6NUR_protein|mol2

> <Gold.PLP.Fitness>
40.4382

> <Gold.PLP.PLP>
-34.4465

> <Gold.PLP.part.hbond>
-3.0000

> <Gold.PLP.part.metal>
0.0000

> <Gold.PLP.part.buried>
-7.5524

> <Gold.PLP.part.nonpolar>
-25.9614

> <Gold.PLP.part.repulsive>
1.3859

> <Gold.PLP.ligand.clash>
0.0000

> <Gold.PLP.ligand.torsion>
0.6262

> <Gold.PLP.Chemscore.Hbond>
2.2688

> <Gold.PLP.Chemscore.CHOScore>
0.0000

> <Gold.PLP.Chemscore.Metal>
0.0000

> <Gold.Chemscore.Hbonds>
donor molecule, donor type, donor heavy atom, donor atom, acceptor molecule, acceptor atom, score
      L1  H    17    40       P1  8028  0.94
      P1  H  7989  7998       L1    20  1.00
      P1  H  8011  8017       L1    17  0.27

> <Gold.PLP.Chemscore.Internal.Correction>
0.4375

> <Gold.Rescore>
     Score         DG    S(hbond)    S(metal)    S(lipo)     H(rot)  DE(clash)    DE(int)     intcor
     10.43     -13.53       1.73        0.00      69.87       2.30       0.01       3.09       ----

> <Gold.Chemscore.Fitness>
10.4348

> <Gold.Chemscore.DG>
-13.5310

> <Gold.Chemscore.ZeroCoef>
-5.4800

> <Gold.Chemscore.Hbond>
1.7256

> <Gold.Chemscore.Metal>
0.0000

> <Gold.Chemscore.Lipo>
69.8665

> <Gold.Chemscore.Internal_Hbond>
0.0000

> <Gold.Chemscore.DEClash>
0.0060

> <Gold.Chemscore.DEInternal>
3.0902

> <Gold.Chemscore.Rot>
2.2996

> <Gold.Chemscore.Internal.Correction>
   9.000000E+99

> <Gold.Chemscore.Hbonds>
donor molecule, donor type, donor heavy atom, donor atom, acceptor molecule, acceptor atom, score
      L1  H    17    40       P1  8028  0.90
      P1  H  7989  7998       L1    20  0.20
      P1  H  8011  8017       L1    17  0.13

> <Gold.Chemscore.Hbond.Weighted>
-5.7635

> <Gold.Chemscore.Metal.Weighted>
-0.0000

> <Gold.Chemscore.Lipo.Weighted>
-8.1744

> <Gold.Chemscore.Internal_Hbond.Weighted>
0.0000

> <Gold.Chemscore.DEClash.Weighted>
0.0060

> <Gold.Chemscore.DEInternal.Weighted>
3.0902

> <Gold.Chemscore.Rot.Weighted>
5.8869

> <Gold.Chemscore.Internal.Correction.Weighted>
   9.000000E+99

> <Gold.Protein.RotatedTorsions>
[ 6907 6896 6895 6894 ] final  -21.41 input  -60.11 | X-H torsion
[ 7974 7965 7964 7962 ] final  -58.60 input  175.53 | X-H torsion
[ 8008 7997 7996 7995 ] final   32.19 input   59.86 | X-H torsion
[ 10167 10162 10161 10158 ] final  -50.86 input  -65.29 | X-H torsion
[ 10718 10713 10712 10709 ] final  138.28 input   66.30 | X-H torsion
[ 10763 10752 10751 10750 ] final  -84.41 input  -60.55 | X-H torsion
[ 11005 11000 10999 10996 ] final  169.31 input  -57.11 | X-H torsion

> <Gold.Protein.ActiveResidues>
 VAL166  LYS551  ARG553  GLY616  TRP617  ASP618  TYR619  PRO620  LYS621  CYS622 
 ASP623  PHE694  ASN695  SER759  ASP760  ASP761  ALA762  ILE779  LEU786  VAL792 
 PHE793  MET794  SER795  GLU796  ALA797  LYS798  CYS799  TRP800  GLU811  SER814 

> <Gold.Protein.RotatedAtoms>
  151.2338  135.0564  159.8997 H   0  0  0  0  0  0  0  0  0  0  0  0  # atno 6907 bound_to 6896
  152.5401  134.0508  159.8119 H   0  0  0  0  0  0  0  0  0  0  0  0  # atno 6908 bound_to 6896
  151.0692  133.5432  159.2660 H   0  0  0  0  0  0  0  0  0  0  0  0  # atno 6909 bound_to 6896
  145.8374  140.8440  143.0052 H   0  0  0  0  0  0  0  0  0  0  0  0  # atno 7974 bound_to 7965
  155.1184  140.3246  155.4503 H   0  0  0  0  0  0  0  0  0  0  0  0  # atno 8008 bound_to 7997
  156.2670  140.2031  156.6255 H   0  0  0  0  0  0  0  0  0  0  0  0  # atno 8009 bound_to 7997
  154.6702  140.0537  157.0144 H   0  0  0  0  0  0  0  0  0  0  0  0  # atno 8010 bound_to 7997
  140.6617  143.2641  151.4420 H   0  0  0  0  0  0  0  0  0  0  0  0  # atno 10167 bound_to 10162
  157.4270  131.1044  151.0291 H   0  0  0  0  0  0  0  0  0  0  0  0  # atno 10718 bound_to 10713
  154.5991  135.5522  153.7356 H   0  0  0  0  0  0  0  0  0  0  0  0  # atno 10763 bound_to 10752
  153.0147  135.6362  154.1740 H   0  0  0  0  0  0  0  0  0  0  0  0  # atno 10764 bound_to 10752
  154.1680  135.2893  155.3069 H   0  0  0  0  0  0  0  0  0  0  0  0  # atno 10765 bound_to 10752
  140.2964  134.7631  157.3880 H   0  0  0  0  0  0  0  0  0  0  0  0  # atno 11005 bound_to 11000
  144.6735  140.0762  143.7471 LP  0  0  0  0  0  0  0  0  0  0  0  0  # atno 17320 bound_to 7965
  145.9503  139.2729  143.1216 LP  0  0  0  0  0  0  0  0  0  0  0  0  # atno 17321 bound_to 7965
  139.5853  144.1619  152.2020 LP  0  0  0  0  0  0  0  0  0  0  0  0  # atno 17342 bound_to 10162
  140.0956  144.5583  150.7024 LP  0  0  0  0  0  0  0  0  0  0  0  0  # atno 17343 bound_to 10162
  157.1201  130.6058  149.5503 LP  0  0  0  0  0  0  0  0  0  0  0  0  # atno 17370 bound_to 10713
  155.9900  130.4949  150.7238 LP  0  0  0  0  0  0  0  0  0  0  0  0  # atno 17371 bound_to 10713
  140.1149  134.5296  155.8234 LP  0  0  0  0  0  0  0  0  0  0  0  0  # atno 17394 bound_to 11000
  141.2136  133.6736  156.6758 LP  0  0  0  0  0  0  0  0  0  0  0  0  # atno 17395 bound_to 11000

$$$$
