AV-unprocessed.smi:1627|AV-procd|sdf|6516|dock10
  -GOLD-   22720 7183D 1   1.00000     0.00000
 Structure written by MMmdl.
 43 44  0  0  0  0  0  0  0  0  1 V2000
  146.2174  139.2911  151.3526 C   0  0  0  0  0  0  0  0  0  0  0  0
  146.8688  138.4329  152.4470 C   0  0  2  0  0  0  0  0  0  0  0  0
  145.8859  137.5081  152.9060 O   0  0  0  0  0  0  0  0  0  0  0  0
  145.6548  136.3867  152.0591 C   0  0  0  0  0  0  0  0  0  0  0  0
  144.3655  135.6802  152.4952 C   0  0  0  0  0  0  0  0  0  0  0  0
  144.6199  134.9168  153.5575 F   0  0  0  0  0  0  0  0  0  0  0  0
  143.4382  136.5785  152.8260 F   0  0  0  0  0  0  0  0  0  0  0  0
  143.9086  134.9056  151.5117 F   0  0  0  0  0  0  0  0  0  0  0  0
  147.3705  139.3018  153.6119 C   0  0  0  0  0  0  0  0  0  0  0  0
  146.5578  139.8401  154.3633 O   0  0  0  0  0  0  0  0  0  0  0  0
  148.7068  139.4166  153.7236 N   0  0  0  0  0  0  0  0  0  0  0  0
  149.4541  140.1095  154.7135 C   0  0  0  0  0  0  0  0  0  0  0  0
  148.7506  140.8981  155.6460 C   0  0  0  0  0  0  0  0  0  0  0  0
  149.4700  141.6172  156.6191 C   0  0  0  0  0  0  0  0  0  0  0  0
  150.8772  141.5307  156.6228 C   0  0  0  0  0  0  0  0  0  0  0  0
  151.6021  142.2459  157.5864 N   0  0  0  0  0  0  0  0  0  0  0  0
  151.5038  141.6678  158.9245 C   0  0  0  0  0  0  0  0  0  0  0  0
  152.4778  142.3617  159.8926 C   0  0  0  0  0  0  0  0  0  0  0  0
  152.2585  143.8832  159.8949 C   0  0  0  0  0  0  0  0  0  0  0  0
  152.3397  144.4343  158.4621 C   0  0  0  0  0  0  0  0  0  0  0  0
  151.3693  143.6872  157.5306 C   0  0  0  0  0  0  0  0  0  0  0  0
  151.5637  140.7875  155.7232 N   0  0  0  0  0  0  0  0  0  0  0  0
  150.8680  140.0996  154.7928 C   0  0  0  0  0  0  0  0  0  0  0  0
  146.9132  140.0374  150.9674 H   0  0  0  0  0  0  0  0  0  0  0  0
  145.3350  139.8142  151.7233 H   0  0  0  0  0  0  0  0  0  0  0  0
  145.9022  138.6712  150.5131 H   0  0  0  0  0  0  0  0  0  0  0  0
  147.7020  137.8846  152.0031 H   0  0  0  0  0  0  0  0  0  0  0  0
  145.5628  136.7172  151.0235 H   0  0  0  0  0  0  0  0  0  0  0  0
  146.4867  135.6827  152.1032 H   0  0  0  0  0  0  0  0  0  0  0  0
  149.2503  139.0011  152.9810 H   0  0  0  0  0  0  0  0  0  0  0  0
  147.6720  140.9521  155.6204 H   0  0  0  0  0  0  0  0  0  0  0  0
  148.9504  142.2248  157.3457 H   0  0  0  0  0  0  0  0  0  0  0  0
  150.4816  141.7708  159.2918 H   0  0  0  0  0  0  0  0  0  0  0  0
  151.7218  140.5999  158.8809 H   0  0  0  0  0  0  0  0  0  0  0  0
  152.3516  141.9624  160.8992 H   0  0  0  0  0  0  0  0  0  0  0  0
  153.5043  142.1414  159.5970 H   0  0  0  0  0  0  0  0  0  0  0  0
  151.2807  144.1120  160.3205 H   0  0  0  0  0  0  0  0  0  0  0  0
  152.9987  144.3706  160.5298 H   0  0  0  0  0  0  0  0  0  0  0  0
  152.1156  145.5014  158.4567 H   0  0  0  0  0  0  0  0  0  0  0  0
  153.3587  144.3285  158.0877 H   0  0  0  0  0  0  0  0  0  0  0  0
  151.4920  144.0410  156.5061 H   0  0  0  0  0  0  0  0  0  0  0  0
  150.3398  143.9017  157.8214 H   0  0  0  0  0  0  0  0  0  0  0  0
  151.4754  139.5534  154.0882 H   0  0  0  0  0  0  0  0  0  0  0  0
  1  2  1  0  0  0  0
  1 24  1  0  0  0  0
  1 25  1  0  0  0  0
  1 26  1  0  0  0  0
  2  3  1  0  0  0  0
  2  9  1  0  0  0  0
  2 27  1  0  0  0  0
  3  4  1  0  0  0  0
  4  5  1  0  0  0  0
  4 28  1  0  0  0  0
  4 29  1  0  0  0  0
  5  6  1  0  0  0  0
  5  7  1  0  0  0  0
  5  8  1  0  0  0  0
  9 10  2  0  0  0  0
  9 11  1  0  0  0  0
 11 12  1  0  0  0  0
 11 30  1  0  0  0  0
 12 23  1  0  0  0  0
 12 13  2  0  0  0  0
 13 14  1  0  0  0  0
 13 31  1  0  0  0  0
 14 15  2  0  0  0  0
 14 32  1  0  0  0  0
 15 16  1  0  0  0  0
 15 22  1  0  0  0  0
 16 21  1  0  0  0  0
 16 17  1  0  0  0  0
 17 18  1  0  0  0  0
 17 33  1  0  0  0  0
 17 34  1  0  0  0  0
 18 19  1  0  0  0  0
 18 35  1  0  0  0  0
 18 36  1  0  0  0  0
 19 20  1  0  0  0  0
 19 37  1  0  0  0  0
 19 38  1  0  0  0  0
 20 21  1  0  0  0  0
 20 39  1  0  0  0  0
 20 40  1  0  0  0  0
 21 41  1  0  0  0  0
 21 42  1  0  0  0  0
 22 23  2  0  0  0  0
 23 43  1  0  0  0  0
M  END
> <s_m_source_file>
AV-unprocessed.smi

> <i_m_source_file_index>
1627

> <i_lp_mmshare_version>
43012

> <i_f3d_flags>
0

> <s_epik_input>
RkMoRikoRilbQ0gyXU9bQ0BASF0oW0NIM10pQyg9TylbTkhdYzFbY0hdW2NIXWMobltjSF0xKU4yW0NIMl1bQ0gyXVtDSDJdW0NIMl1bQ0gyXTI=

> <s_epik_cmdline>
J2VwaWtfcHl0aG9uJywgJy1waCcsICc3LjAnLCAnLXRuJywgJzgnLCAnLW1hJywgJzIwMCcsICctbWV0YWxfYmluZGluZycsICctaW1hZScsICc8aW5maWxlLm1hZT4nLCAnLW9tYWUnLCAnPG91dGZpbGUubWFlPic=

> <r_lp_tautomer_probability>
1

> <r_epik_Ionization_Penalty>
0.0254771

> <r_epik_Ionization_Penalty_Charging>
0

> <r_epik_Ionization_Penalty_Neutral>
0.0254771

> <r_epik_State_Penalty>
0.0187406

> <r_epik_Charging_Adjusted_Penalty>
0.0187406

> <i_epik_Tot_Q>
0

> <i_epik_Tot_abs_Q>
0

> <r_epik_Metal_State_Penalty>
0.017939

> <b_epik_Metal_Only>
0

> <s_lp_Force_Field>
OPLS_2005

> <r_lp_Energy>
26.2479

> <b_lp_Chiralities_Consistent>
1

> <s_lp_Variant>
AV-unprocessed.smi:1627-1

> <Gold.Version>
5.8.1

> <Gold.Id.Protein>
6NUR|6NUR_protein|mol2

> <Gold.PLP.Fitness>
41.3111

> <Gold.PLP.PLP>
-42.6356

> <Gold.PLP.part.hbond>
-1.5606

> <Gold.PLP.part.metal>
0.0000

> <Gold.PLP.part.buried>
3.1443

> <Gold.PLP.part.nonpolar>
-44.6649

> <Gold.PLP.part.repulsive>
0.4788

> <Gold.PLP.ligand.clash>
0.0000

> <Gold.PLP.ligand.torsion>
0.8644

> <Gold.PLP.Chemscore.Hbond>
0.0718

> <Gold.PLP.Chemscore.CHOScore>
0.0000

> <Gold.PLP.Chemscore.Metal>
0.0000

> <Gold.Chemscore.Hbonds>
donor molecule, donor type, donor heavy atom, donor atom, acceptor molecule, acceptor atom, score
      L1  H    11    30       P1  7957  0.35

> <Gold.PLP.Chemscore.Internal.Correction>
0.1889

> <Gold.Rescore>
     Score         DG    S(hbond)    S(metal)    S(lipo)     H(rot)  DE(clash)    DE(int)     intcor
     10.58     -15.39       0.45        0.00     112.60       1.87       2.22       2.59       ----

> <Gold.Chemscore.Fitness>
10.5842

> <Gold.Chemscore.DG>
-15.3892

> <Gold.Chemscore.ZeroCoef>
-5.4800

> <Gold.Chemscore.Hbond>
0.4533

> <Gold.Chemscore.Metal>
0.0000

> <Gold.Chemscore.Lipo>
112.5951

> <Gold.Chemscore.Internal_Hbond>
0.0000

> <Gold.Chemscore.DEClash>
2.2157

> <Gold.Chemscore.DEInternal>
2.5894

> <Gold.Chemscore.Rot>
1.8665

> <Gold.Chemscore.Internal.Correction>
   9.000000E+99

> <Gold.Chemscore.Hbonds>
donor molecule, donor type, donor heavy atom, donor atom, acceptor molecule, acceptor atom, score
      L1  H    11    30       P1  7957  0.34

> <Gold.Chemscore.Hbond.Weighted>
-1.5139

> <Gold.Chemscore.Metal.Weighted>
-0.0000

> <Gold.Chemscore.Lipo.Weighted>
-13.1736

> <Gold.Chemscore.Internal_Hbond.Weighted>
0.0000

> <Gold.Chemscore.DEClash.Weighted>
2.2157

> <Gold.Chemscore.DEInternal.Weighted>
2.5894

> <Gold.Chemscore.Rot.Weighted>
4.7783

> <Gold.Chemscore.Internal.Correction.Weighted>
   9.000000E+99

> <Gold.Protein.RotatedTorsions>
[ 6907 6896 6895 6894 ] final  -23.36 input  -60.11 | X-H torsion
[ 7974 7965 7964 7962 ] final  176.63 input  175.53 | X-H torsion
[ 8008 7997 7996 7995 ] final  108.65 input   59.86 | X-H torsion
[ 10167 10162 10161 10158 ] final  149.83 input  -65.29 | X-H torsion
[ 10718 10713 10712 10709 ] final -110.48 input   66.30 | X-H torsion
[ 10763 10752 10751 10750 ] final  147.25 input  -60.55 | X-H torsion
[ 11005 11000 10999 10996 ] final  163.89 input  -57.11 | X-H torsion

> <Gold.Protein.ActiveResidues>
 VAL166  LYS551  ARG553  GLY616  TRP617  ASP618  TYR619  PRO620  LYS621  CYS622 
 ASP623  PHE694  ASN695  SER759  ASP760  ASP761  ALA762  ILE779  LEU786  VAL792 
 PHE793  MET794  SER795  GLU796  ALA797  LYS798  CYS799  TRP800  GLU811  SER814 

> <Gold.Protein.RotatedAtoms>
  151.2052  135.0459  159.8888 H   0  0  0  0  0  0  0  0  0  0  0  0  # atno 6907 bound_to 6896
  152.5429  134.0806  159.8244 H   0  0  0  0  0  0  0  0  0  0  0  0  # atno 6908 bound_to 6896
  151.0952  133.5238  159.2644 H   0  0  0  0  0  0  0  0  0  0  0  0  # atno 6909 bound_to 6896
  144.7181  140.0126  143.6440 H   0  0  0  0  0  0  0  0  0  0  0  0  # atno 7974 bound_to 7965
  156.1919  140.3072  155.9350 H   0  0  0  0  0  0  0  0  0  0  0  0  # atno 8008 bound_to 7997
  155.3153  140.0453  157.3054 H   0  0  0  0  0  0  0  0  0  0  0  0  # atno 8009 bound_to 7997
  154.5463  140.2277  155.8567 H   0  0  0  0  0  0  0  0  0  0  0  0  # atno 8010 bound_to 7997
  139.4857  144.5571  151.7298 H   0  0  0  0  0  0  0  0  0  0  0  0  # atno 10167 bound_to 10162
  156.0593  130.5817  150.8243 H   0  0  0  0  0  0  0  0  0  0  0  0  # atno 10718 bound_to 10713
  154.0352  135.2894  155.3363 H   0  0  0  0  0  0  0  0  0  0  0  0  # atno 10763 bound_to 10752
  154.6963  135.5206  153.8466 H   0  0  0  0  0  0  0  0  0  0  0  0  # atno 10764 bound_to 10752
  153.0623  135.6618  154.0561 H   0  0  0  0  0  0  0  0  0  0  0  0  # atno 10765 bound_to 10752
  140.2404  134.8055  157.3405 H   0  0  0  0  0  0  0  0  0  0  0  0  # atno 11005 bound_to 11000
  146.0246  139.3281  143.0792 LP  0  0  0  0  0  0  0  0  0  0  0  0  # atno 17320 bound_to 7965
  145.8527  140.9520  143.0741 LP  0  0  0  0  0  0  0  0  0  0  0  0  # atno 17321 bound_to 7965
  140.5134  144.0990  150.6001 LP  0  0  0  0  0  0  0  0  0  0  0  0  # atno 17342 bound_to 10162
  140.3923  143.2746  152.0045 LP  0  0  0  0  0  0  0  0  0  0  0  0  # atno 17343 bound_to 10162
  157.5589  131.0945  150.9588 LP  0  0  0  0  0  0  0  0  0  0  0  0  # atno 17370 bound_to 10713
  156.9830  130.5534  149.5297 LP  0  0  0  0  0  0  0  0  0  0  0  0  # atno 17371 bound_to 10713
  140.1659  134.4669  155.7863 LP  0  0  0  0  0  0  0  0  0  0  0  0  # atno 17394 bound_to 11000
  141.2211  133.6921  156.7625 LP  0  0  0  0  0  0  0  0  0  0  0  0  # atno 17395 bound_to 11000

$$$$
