AV-unprocessed.smi:1264|AV-procd|sdf|5314|dock6
  -GOLD-   22720 4443D 1   1.00000     0.00000
 Structure written by MMmdl.
 43 43  0  0  0  0  0  0  0  0  1 V2000
  146.9960  138.8327  152.8583 C   0  0  0  0  0  0  0  0  0  0  0  0
  146.8863  137.3850  152.7683 N   0  0  0  0  0  0  0  0  0  0  0  0
  146.1159  136.6355  153.5696 C   0  0  0  0  0  0  0  0  0  0  0  0
  145.4300  137.1085  154.4780 O   0  0  0  0  0  0  0  0  0  0  0  0
  146.1417  135.1188  153.3134 C   0  0  1  0  0  0  0  0  0  0  0  0
  145.4761  134.8593  151.9409 C   0  0  0  0  0  0  0  0  0  0  0  0
  145.2081  133.3735  151.6086 C   0  0  0  0  0  0  0  0  0  0  0  0
  146.5037  132.6801  151.1609 C   0  0  0  0  0  0  0  0  0  0  0  0
  144.1123  133.1968  150.5441 C   0  0  0  0  0  0  0  0  0  0  0  0
  147.5252  134.6492  153.2608 N   0  0  0  0  0  0  0  0  0  0  0  0
  148.0146  133.5876  153.9206 C   0  0  0  0  0  0  0  0  0  0  0  0
  147.3281  132.8469  154.6239 O   0  0  0  0  0  0  0  0  0  0  0  0
  149.5141  133.3349  153.7751 C   0  0  0  0  0  0  0  0  0  0  0  0
  150.1904  133.5605  155.1031 C   0  0  0  0  0  0  0  0  0  0  0  0
  150.4652  134.8021  155.7447 C   0  0  0  0  0  0  0  0  0  0  0  0
  150.1502  136.1900  155.2654 C   0  0  0  0  0  0  0  0  0  0  0  0
  151.0766  134.6347  156.9053 N   0  0  0  0  0  0  0  0  0  0  0  0
  151.2327  133.2540  157.0601 O   0  0  0  0  0  0  0  0  0  0  0  0
  150.6989  132.6371  155.9755 C   0  0  0  0  0  0  0  0  0  0  0  0
  150.7794  131.1482  155.9482 C   0  0  0  0  0  0  0  0  0  0  0  0
  147.6810  139.2017  152.0950 H   0  0  0  0  0  0  0  0  0  0  0  0
  147.3784  139.1329  153.8348 H   0  0  0  0  0  0  0  0  0  0  0  0
  146.0254  139.3059  152.7033 H   0  0  0  0  0  0  0  0  0  0  0  0
  147.4244  136.9236  152.0488 H   0  0  0  0  0  0  0  0  0  0  0  0
  145.5962  134.6057  154.1069 H   0  0  0  0  0  0  0  0  0  0  0  0
  144.5306  135.4023  151.8857 H   0  0  0  0  0  0  0  0  0  0  0  0
  146.1052  135.2836  151.1558 H   0  0  0  0  0  0  0  0  0  0  0  0
  144.8763  132.8666  152.5152 H   0  0  0  0  0  0  0  0  0  0  0  0
  146.8987  133.1290  150.2487 H   0  0  0  0  0  0  0  0  0  0  0  0
  146.3362  131.6208  150.9650 H   0  0  0  0  0  0  0  0  0  0  0  0
  147.2750  132.7520  151.9283 H   0  0  0  0  0  0  0  0  0  0  0  0
  144.3670  133.7202  149.6221 H   0  0  0  0  0  0  0  0  0  0  0  0
  143.1499  133.5734  150.8893 H   0  0  0  0  0  0  0  0  0  0  0  0
  143.9726  132.1435  150.2988 H   0  0  0  0  0  0  0  0  0  0  0  0
  148.1693  135.2018  152.7143 H   0  0  0  0  0  0  0  0  0  0  0  0
  149.6699  132.3172  153.4154 H   0  0  0  0  0  0  0  0  0  0  0  0
  149.9176  133.9921  153.0040 H   0  0  0  0  0  0  0  0  0  0  0  0
  150.3684  136.2948  154.2025 H   0  0  0  0  0  0  0  0  0  0  0  0
  150.7346  136.9424  155.7965 H   0  0  0  0  0  0  0  0  0  0  0  0
  149.0955  136.4224  155.4123 H   0  0  0  0  0  0  0  0  0  0  0  0
  149.9657  130.7242  155.3600 H   0  0  0  0  0  0  0  0  0  0  0  0
  150.7170  130.7353  156.9552 H   0  0  0  0  0  0  0  0  0  0  0  0
  151.7212  130.8230  155.5059 H   0  0  0  0  0  0  0  0  0  0  0  0
  1  2  1  0  0  0  0
  1 21  1  0  0  0  0
  1 22  1  0  0  0  0
  1 23  1  0  0  0  0
  2  3  1  0  0  0  0
  2 24  1  0  0  0  0
  3  4  2  0  0  0  0
  3  5  1  0  0  0  0
  5  6  1  0  0  0  0
  5 10  1  0  0  0  0
  5 25  1  0  0  0  0
  6  7  1  0  0  0  0
  6 26  1  0  0  0  0
  6 27  1  0  0  0  0
  7  8  1  0  0  0  0
  7  9  1  0  0  0  0
  7 28  1  0  0  0  0
  8 29  1  0  0  0  0
  8 30  1  0  0  0  0
  8 31  1  0  0  0  0
  9 32  1  0  0  0  0
  9 33  1  0  0  0  0
  9 34  1  0  0  0  0
 10 11  1  0  0  0  0
 10 35  1  0  0  0  0
 11 12  2  0  0  0  0
 11 13  1  0  0  0  0
 13 14  1  0  0  0  0
 13 36  1  0  0  0  0
 13 37  1  0  0  0  0
 14 19  2  0  0  0  0
 14 15  1  0  0  0  0
 15 16  1  0  0  0  0
 15 17  2  0  0  0  0
 16 38  1  0  0  0  0
 16 39  1  0  0  0  0
 16 40  1  0  0  0  0
 17 18  1  0  0  0  0
 18 19  1  0  0  0  0
 19 20  1  0  0  0  0
 20 41  1  0  0  0  0
 20 42  1  0  0  0  0
 20 43  1  0  0  0  0
M  END
> <s_m_source_file>
AV-unprocessed.smi

> <i_m_source_file_index>
1264

> <i_lp_mmshare_version>
43012

> <i_f3d_flags>
0

> <s_epik_input>
W0NIM11bTkhdQyg9TylbQ0BIXShbQ0gyXVtDSF0oW0NIM10pW0NIM10pW05IXUMoPU8pW0NIMl1jMWMoW0NIM10pbm9jMVtDSDNd

> <s_epik_cmdline>
J2VwaWtfcHl0aG9uJywgJy1waCcsICc3LjAnLCAnLXRuJywgJzgnLCAnLW1hJywgJzIwMCcsICctbWV0YWxfYmluZGluZycsICctaW1hZScsICc8aW5maWxlLm1hZT4nLCAnLW9tYWUnLCAnPG91dGZpbGUubWFlPic=

> <r_lp_tautomer_probability>
1

> <r_epik_Ionization_Penalty>
6.00781e-08

> <r_epik_Ionization_Penalty_Charging>
0

> <r_epik_Ionization_Penalty_Neutral>
6.00781e-08

> <r_epik_State_Penalty>
-0

> <r_epik_Charging_Adjusted_Penalty>
0

> <i_epik_Tot_Q>
0

> <i_epik_Tot_abs_Q>
0

> <r_epik_Metal_State_Penalty>
-0

> <b_epik_Metal_Only>
0

> <s_lp_Force_Field>
OPLS_2005

> <r_lp_Energy>
-0.987692

> <b_lp_Chiralities_Consistent>
1

> <s_lp_Variant>
AV-unprocessed.smi:1264-2

> <Gold.Version>
5.8.1

> <Gold.Id.Protein>
6NUR|6NUR_protein|mol2

> <Gold.PLP.Fitness>
36.7363

> <Gold.PLP.PLP>
-30.5310

> <Gold.PLP.part.hbond>
-3.9361

> <Gold.PLP.part.metal>
0.0000

> <Gold.PLP.part.buried>
-4.8873

> <Gold.PLP.part.nonpolar>
-23.1018

> <Gold.PLP.part.repulsive>
0.1394

> <Gold.PLP.ligand.clash>
0.0000

> <Gold.PLP.ligand.torsion>
0.6698

> <Gold.PLP.Chemscore.Hbond>
2.4820

> <Gold.PLP.Chemscore.CHOScore>
0.0000

> <Gold.PLP.Chemscore.Metal>
0.0000

> <Gold.Chemscore.Hbonds>
donor molecule, donor type, donor heavy atom, donor atom, acceptor molecule, acceptor atom, score
      L1  H     2    24       P1  7948  0.80
      L1  H    10    35       P1  7948  0.98
      P1  H  6896  6909       L1    18  0.34

> <Gold.PLP.Chemscore.Internal.Correction>
0.0990

> <Gold.Rescore>
     Score         DG    S(hbond)    S(metal)    S(lipo)     H(rot)  DE(clash)    DE(int)     intcor
     14.56     -15.63       2.40        0.00      63.98       2.09       0.00       1.06       ----

> <Gold.Chemscore.Fitness>
14.5635

> <Gold.Chemscore.DG>
-15.6307

> <Gold.Chemscore.ZeroCoef>
-5.4800

> <Gold.Chemscore.Hbond>
2.4023

> <Gold.Chemscore.Metal>
0.0000

> <Gold.Chemscore.Lipo>
63.9797

> <Gold.Chemscore.Internal_Hbond>
0.0000

> <Gold.Chemscore.DEClash>
0.0038

> <Gold.Chemscore.DEInternal>
1.0635

> <Gold.Chemscore.Rot>
2.0931

> <Gold.Chemscore.Internal.Correction>
   9.000000E+99

> <Gold.Chemscore.Hbonds>
donor molecule, donor type, donor heavy atom, donor atom, acceptor molecule, acceptor atom, score
      L1  H     2    24       P1  7948  0.79
      L1  H    10    35       P1  7948  0.88
      P1  H  6896  6909       L1    18  0.03

> <Gold.Chemscore.Hbond.Weighted>
-8.0235

> <Gold.Chemscore.Metal.Weighted>
-0.0000

> <Gold.Chemscore.Lipo.Weighted>
-7.4856

> <Gold.Chemscore.Internal_Hbond.Weighted>
0.0000

> <Gold.Chemscore.DEClash.Weighted>
0.0038

> <Gold.Chemscore.DEInternal.Weighted>
1.0635

> <Gold.Chemscore.Rot.Weighted>
5.3584

> <Gold.Chemscore.Internal.Correction.Weighted>
   9.000000E+99

> <Gold.Protein.RotatedTorsions>
[ 6907 6896 6895 6894 ] final  -40.87 input  -60.11 | X-H torsion
[ 7974 7965 7964 7962 ] final   -1.66 input  175.53 | X-H torsion
[ 8008 7997 7996 7995 ] final  142.43 input   59.86 | X-H torsion
[ 10167 10162 10161 10158 ] final -154.06 input  -65.29 | X-H torsion
[ 10718 10713 10712 10709 ] final   65.49 input   66.30 | X-H torsion
[ 10763 10752 10751 10750 ] final -152.58 input  -60.55 | X-H torsion
[ 11005 11000 10999 10996 ] final  159.85 input  -57.11 | X-H torsion

> <Gold.Protein.ActiveResidues>
 VAL166  LYS551  ARG553  GLY616  TRP617  ASP618  TYR619  PRO620  LYS621  CYS622 
 ASP623  PHE694  ASN695  SER759  ASP760  ASP761  ALA762  ILE779  LEU786  VAL792 
 PHE793  MET794  SER795  GLU796  ALA797  LYS798  CYS799  TRP800  GLU811  SER814 

> <Gold.Protein.RotatedAtoms>
  150.9734  134.9102  159.7801 H   0  0  0  0  0  0  0  0  0  0  0  0  # atno 6907 bound_to 6896
  152.5198  134.3510  159.9261 H   0  0  0  0  0  0  0  0  0  0  0  0  # atno 6908 bound_to 6896
  151.3518  133.3881  159.2715 H   0  0  0  0  0  0  0  0  0  0  0  0  # atno 6909 bound_to 6896
  146.2414  140.1454  142.8335 H   0  0  0  0  0  0  0  0  0  0  0  0  # atno 7974 bound_to 7965
  156.2949  140.2289  156.4726 H   0  0  0  0  0  0  0  0  0  0  0  0  # atno 8008 bound_to 7997
  154.7922  140.0453  157.1230 H   0  0  0  0  0  0  0  0  0  0  0  0  # atno 8009 bound_to 7997
  154.9632  140.3057  155.5025 H   0  0  0  0  0  0  0  0  0  0  0  0  # atno 8010 bound_to 7997
  139.7045  143.9209  152.2442 H   0  0  0  0  0  0  0  0  0  0  0  0  # atno 10167 bound_to 10162
  157.6109  130.9217  149.9983 H   0  0  0  0  0  0  0  0  0  0  0  0  # atno 10718 bound_to 10713
  154.7984  135.3233  154.7610 H   0  0  0  0  0  0  0  0  0  0  0  0  # atno 10763 bound_to 10752
  153.8283  135.6881  153.4822 H   0  0  0  0  0  0  0  0  0  0  0  0  # atno 10764 bound_to 10752
  153.1688  135.4631  154.9816 H   0  0  0  0  0  0  0  0  0  0  0  0  # atno 10765 bound_to 10752
  140.2002  134.8343  157.3009 H   0  0  0  0  0  0  0  0  0  0  0  0  # atno 11005 bound_to 11000
  145.0211  140.8795  143.5166 LP  0  0  0  0  0  0  0  0  0  0  0  0  # atno 17320 bound_to 7965
  145.1503  139.2518  143.5444 LP  0  0  0  0  0  0  0  0  0  0  0  0  # atno 17321 bound_to 7965
  139.9061  144.6884  150.8612 LP  0  0  0  0  0  0  0  0  0  0  0  0  # atno 17342 bound_to 10162
  140.7718  143.3477  151.2076 LP  0  0  0  0  0  0  0  0  0  0  0  0  # atno 17343 bound_to 10162
  156.1211  130.3646  149.9886 LP  0  0  0  0  0  0  0  0  0  0  0  0  # atno 17370 bound_to 10713
  156.7966  130.9275  151.3646 LP  0  0  0  0  0  0  0  0  0  0  0  0  # atno 17371 bound_to 10713
  140.2062  134.4194  155.7636 LP  0  0  0  0  0  0  0  0  0  0  0  0  # atno 17394 bound_to 11000
  141.2227  133.7096  156.8265 LP  0  0  0  0  0  0  0  0  0  0  0  0  # atno 17395 bound_to 11000

$$$$
