AV-unprocessed.smi:2510|AV-procd|sdf|9872|dock9
  -GOLD-   2272013503D 1   1.00000     0.00000
 Structure written by MMmdl.
 48 49  0  0  0  0  0  0  0  0  1 V2000
  150.8072  138.8946  154.8978 C   0  0  0  0  0  0  0  0  0  0  0  0
  149.6790  137.9875  154.3745 C   0  0  0  0  0  0  0  0  0  0  0  0
  149.1392  136.9129  155.3624 C   0  0  0  0  0  0  0  0  0  0  0  0
  148.6548  137.5924  156.6580 C   0  0  0  0  0  0  0  0  0  0  0  0
  148.3261  136.6219  157.8036 C   0  0  0  0  0  0  0  0  0  0  0  0
  148.1791  135.8310  154.7897 C   0  0  1  0  0  0  0  0  0  0  0  0
  147.4434  136.2088  153.5879 N   0  0  0  0  0  0  0  0  0  0  0  0
  146.1077  136.1800  153.4639 C   0  0  0  0  0  0  0  0  0  0  0  0
  145.3491  135.8509  154.3758 O   0  0  0  0  0  0  0  0  0  0  0  0
  145.5399  136.5754  152.0991 C   0  0  0  0  0  0  0  0  0  0  0  0
  144.9189  135.3834  151.4204 C   0  0  0  0  0  0  0  0  0  0  0  0
  145.5396  134.1446  151.0814 C   0  0  0  0  0  0  0  0  0  0  0  0
  144.5402  133.4116  150.5063 C   0  0  0  0  0  0  0  0  0  0  0  0
  144.5265  132.0309  149.9447 C   0  0  0  0  0  0  0  0  0  0  0  0
  143.4209  134.2111  150.5188 N   0  0  0  0  0  0  0  0  0  0  0  0
  143.6394  135.4185  151.0713 N   0  0  0  0  0  0  0  0  0  0  0  0
  149.3847  134.9412  154.4672 C   0  0  2  0  0  0  0  0  0  0  0  0
  149.2224  133.4292  154.5545 C   0  0  0  0  0  0  0  0  0  0  0  0
  150.0862  135.7050  155.5989 C   0  0  1  0  0  0  0  0  0  0  0  0
  151.4515  136.0149  155.3599 O   0  0  0  0  0  0  0  0  0  0  0  0
  152.0825  136.6493  156.4580 C   0  0  0  0  0  0  0  0  0  0  0  0
  142.5143  133.9497  150.1581 H   0  0  0  0  0  0  0  0  0  0  0  0
  150.9841  139.7208  154.2093 H   0  0  0  0  0  0  0  0  0  0  0  0
  151.7475  138.3529  154.9946 H   0  0  0  0  0  0  0  0  0  0  0  0
  150.5721  139.3227  155.8689 H   0  0  0  0  0  0  0  0  0  0  0  0
  148.8644  138.6334  154.0471 H   0  0  0  0  0  0  0  0  0  0  0  0
  150.0334  137.5123  153.4597 H   0  0  0  0  0  0  0  0  0  0  0  0
  149.3721  138.3378  157.0002 H   0  0  0  0  0  0  0  0  0  0  0  0
  147.7509  138.1652  156.4487 H   0  0  0  0  0  0  0  0  0  0  0  0
  147.9262  137.1631  158.6610 H   0  0  0  0  0  0  0  0  0  0  0  0
  149.2087  136.0812  158.1441 H   0  0  0  0  0  0  0  0  0  0  0  0
  147.5794  135.8879  157.5001 H   0  0  0  0  0  0  0  0  0  0  0  0
  147.5564  135.3760  155.5643 H   0  0  0  0  0  0  0  0  0  0  0  0
  147.9883  136.5039  152.7901 H   0  0  0  0  0  0  0  0  0  0  0  0
  144.8096  137.3748  152.2319 H   0  0  0  0  0  0  0  0  0  0  0  0
  146.3387  136.9867  151.4807 H   0  0  0  0  0  0  0  0  0  0  0  0
  146.5624  133.8395  151.2461 H   0  0  0  0  0  0  0  0  0  0  0  0
  145.4893  131.5410  150.0913 H   0  0  0  0  0  0  0  0  0  0  0  0
  144.3178  132.0502  148.8750 H   0  0  0  0  0  0  0  0  0  0  0  0
  143.7625  131.4229  150.4294 H   0  0  0  0  0  0  0  0  0  0  0  0
  149.8209  135.2270  153.5081 H   0  0  0  0  0  0  0  0  0  0  0  0
  148.8647  133.1226  155.5377 H   0  0  0  0  0  0  0  0  0  0  0  0
  150.1649  132.9144  154.3708 H   0  0  0  0  0  0  0  0  0  0  0  0
  148.5046  133.0694  153.8171 H   0  0  0  0  0  0  0  0  0  0  0  0
  149.9235  135.2453  156.5771 H   0  0  0  0  0  0  0  0  0  0  0  0
  153.1096  136.8996  156.1927 H   0  0  0  0  0  0  0  0  0  0  0  0
  152.1145  135.9969  157.3300 H   0  0  0  0  0  0  0  0  0  0  0  0
  151.5704  137.5738  156.7281 H   0  0  0  0  0  0  0  0  0  0  0  0
  1  2  1  0  0  0  0
  1 23  1  0  0  0  0
  1 24  1  0  0  0  0
  1 25  1  0  0  0  0
  2  3  1  0  0  0  0
  2 26  1  0  0  0  0
  2 27  1  0  0  0  0
  3 19  1  0  0  0  0
  3  4  1  0  0  0  0
  3  6  1  0  0  0  0
  4  5  1  0  0  0  0
  4 28  1  0  0  0  0
  4 29  1  0  0  0  0
  5 30  1  0  0  0  0
  5 31  1  0  0  0  0
  5 32  1  0  0  0  0
  6  7  1  0  0  0  0
  6 17  1  0  0  0  0
  6 33  1  0  0  0  0
  7  8  1  0  0  0  0
  7 34  1  0  0  0  0
  8  9  2  0  0  0  0
  8 10  1  0  0  0  0
 10 11  1  0  0  0  0
 10 35  1  0  0  0  0
 10 36  1  0  0  0  0
 11 16  2  0  0  0  0
 11 12  1  0  0  0  0
 12 13  2  0  0  0  0
 12 37  1  0  0  0  0
 13 14  1  0  0  0  0
 13 15  1  0  0  0  0
 14 38  1  0  0  0  0
 14 39  1  0  0  0  0
 14 40  1  0  0  0  0
 15 22  1  0  0  0  0
 15 16  1  0  0  0  0
 17 18  1  0  0  0  0
 17 19  1  0  0  0  0
 17 41  1  0  0  0  0
 18 42  1  0  0  0  0
 18 43  1  0  0  0  0
 18 44  1  0  0  0  0
 19 20  1  0  0  0  0
 19 45  1  0  0  0  0
 20 21  1  0  0  0  0
 21 46  1  0  0  0  0
 21 47  1  0  0  0  0
 21 48  1  0  0  0  0
M  END
> <s_m_source_file>
AV-unprocessed.smi

> <i_m_source_file_index>
2510

> <i_lp_mmshare_version>
43012

> <i_f3d_flags>
0

> <s_epik_input>
W0NIM11PW0NAQEhdMVtDQEhdKFtDSDNdKVtDQEBIXShDMShbQ0gyXVtDSDNdKVtDSDJdW0NIM10pW05IXUMoPU8pW0NIMl1jMltjSF1jKFtDSDNdKVtuSF1uMg==

> <s_epik_cmdline>
J2VwaWtfcHl0aG9uJywgJy1waCcsICc3LjAnLCAnLXRuJywgJzgnLCAnLW1hJywgJzIwMCcsICctbWV0YWxfYmluZGluZycsICctaW1hZScsICc8aW5maWxlLm1hZT4nLCAnLW9tYWUnLCAnPG91dGZpbGUubWFlPic=

> <r_lp_tautomer_probability>
0.5

> <r_epik_Ionization_Penalty>
9.73156e-05

> <r_epik_Ionization_Penalty_Charging>
0

> <r_epik_Ionization_Penalty_Neutral>
9.73156e-05

> <r_epik_State_Penalty>
0.41068

> <r_epik_Charging_Adjusted_Penalty>
0.41068

> <i_epik_Tot_Q>
0

> <i_epik_Tot_abs_Q>
0

> <r_epik_Metal_State_Penalty>
0.410699

> <b_epik_Metal_Only>
0

> <s_lp_Force_Field>
OPLS_2005

> <r_lp_Energy>
23.9763

> <b_lp_Chiralities_Consistent>
1

> <s_lp_Variant>
AV-unprocessed.smi:2510-3

> <Gold.Version>
5.8.1

> <Gold.Id.Protein>
6NUR|6NUR_protein|mol2

> <Gold.PLP.Fitness>
35.4980

> <Gold.PLP.PLP>
-26.9440

> <Gold.PLP.part.hbond>
-2.7412

> <Gold.PLP.part.metal>
0.0000

> <Gold.PLP.part.buried>
-5.1646

> <Gold.PLP.part.nonpolar>
-20.3388

> <Gold.PLP.part.repulsive>
0.3335

> <Gold.PLP.ligand.clash>
0.0000

> <Gold.PLP.ligand.torsion>
0.4889

> <Gold.PLP.Chemscore.Hbond>
2.9750

> <Gold.PLP.Chemscore.CHOScore>
0.0000

> <Gold.PLP.Chemscore.Metal>
0.0000

> <Gold.Chemscore.Hbonds>
donor molecule, donor type, donor heavy atom, donor atom, acceptor molecule, acceptor atom, score
      L1  H     7    34       P1  7948  0.58
      L1  H    15    22       P1 10186  0.98
      P1  H 10752 10763       L1    20  0.70

> <Gold.PLP.Chemscore.Internal.Correction>
0.6067

> <Gold.Rescore>
     Score         DG    S(hbond)    S(metal)    S(lipo)     H(rot)  DE(clash)    DE(int)     intcor
     16.82     -17.38       2.63        0.00      66.28       1.81       0.01       0.55       ----

> <Gold.Chemscore.Fitness>
16.8234

> <Gold.Chemscore.DG>
-17.3794

> <Gold.Chemscore.ZeroCoef>
-5.4800

> <Gold.Chemscore.Hbond>
2.6284

> <Gold.Chemscore.Metal>
0.0000

> <Gold.Chemscore.Lipo>
66.2789

> <Gold.Chemscore.Internal_Hbond>
0.0000

> <Gold.Chemscore.DEClash>
0.0096

> <Gold.Chemscore.DEInternal>
0.5464

> <Gold.Chemscore.Rot>
1.8102

> <Gold.Chemscore.Internal.Correction>
   9.000000E+99

> <Gold.Chemscore.Hbonds>
donor molecule, donor type, donor heavy atom, donor atom, acceptor molecule, acceptor atom, score
      L1  H     7    34       P1  7948  0.54
      L1  H    15    22       P1 10186  0.91
      P1  H 10752 10763       L1    20  0.07

> <Gold.Chemscore.Hbond.Weighted>
-8.7789

> <Gold.Chemscore.Metal.Weighted>
-0.0000

> <Gold.Chemscore.Lipo.Weighted>
-7.7546

> <Gold.Chemscore.Internal_Hbond.Weighted>
0.0000

> <Gold.Chemscore.DEClash.Weighted>
0.0096

> <Gold.Chemscore.DEInternal.Weighted>
0.5464

> <Gold.Chemscore.Rot.Weighted>
4.6341

> <Gold.Chemscore.Internal.Correction.Weighted>
   9.000000E+99

> <Gold.Protein.RotatedTorsions>
[ 6907 6896 6895 6894 ] final  -57.35 input  -60.11 | X-H torsion
[ 7974 7965 7964 7962 ] final -132.03 input  175.53 | X-H torsion
[ 8008 7997 7996 7995 ] final -102.82 input   59.86 | X-H torsion
[ 10167 10162 10161 10158 ] final  -14.11 input  -65.29 | X-H torsion
[ 10718 10713 10712 10709 ] final   91.97 input   66.30 | X-H torsion
[ 10763 10752 10751 10750 ] final   59.66 input  -60.55 | X-H torsion
[ 11005 11000 10999 10996 ] final   22.87 input  -57.11 | X-H torsion

> <Gold.Protein.ActiveResidues>
 VAL166  LYS551  ARG553  GLY616  TRP617  ASP618  TYR619  PRO620  LYS621  CYS622 
 ASP623  PHE694  ASN695  SER759  ASP760  ASP761  ALA762  ILE779  LEU786  VAL792 
 PHE793  MET794  SER795  GLU796  ALA797  LYS798  CYS799  TRP800  GLU811  SER814 

> <Gold.Protein.RotatedAtoms>
  150.8093  134.7237  159.6672 H   0  0  0  0  0  0  0  0  0  0  0  0  # atno 6907 bound_to 6896
  152.4213  134.5947  159.9993 H   0  0  0  0  0  0  0  0  0  0  0  0  # atno 6908 bound_to 6896
  151.6162  133.3306  159.3114 H   0  0  0  0  0  0  0  0  0  0  0  0  # atno 6909 bound_to 6896
  144.9323  140.7143  143.4898 H   0  0  0  0  0  0  0  0  0  0  0  0  # atno 7974 bound_to 7965
  154.8621  140.0426  157.1672 H   0  0  0  0  0  0  0  0  0  0  0  0  # atno 8008 bound_to 7997
  154.8829  140.2975  155.5394 H   0  0  0  0  0  0  0  0  0  0  0  0  # atno 8009 bound_to 7997
  156.2998  140.2408  156.3834 H   0  0  0  0  0  0  0  0  0  0  0  0  # atno 8010 bound_to 7997
  140.7195  143.5356  150.9469 H   0  0  0  0  0  0  0  0  0  0  0  0  # atno 10167 bound_to 10162
  157.6959  131.0426  150.3811 H   0  0  0  0  0  0  0  0  0  0  0  0  # atno 10718 bound_to 10713
  152.9900  135.5563  154.5749 H   0  0  0  0  0  0  0  0  0  0  0  0  # atno 10763 bound_to 10752
  154.5142  135.2804  155.1319 H   0  0  0  0  0  0  0  0  0  0  0  0  # atno 10764 bound_to 10752
  154.2698  135.6365  153.5359 H   0  0  0  0  0  0  0  0  0  0  0  0  # atno 10765 bound_to 10752
  140.3759  134.1973  155.7665 H   0  0  0  0  0  0  0  0  0  0  0  0  # atno 11005 bound_to 11000
  145.3122  139.1815  143.4633 LP  0  0  0  0  0  0  0  0  0  0  0  0  # atno 17320 bound_to 7965
  146.3252  140.3128  142.8628 LP  0  0  0  0  0  0  0  0  0  0  0  0  # atno 17321 bound_to 7965
  139.9077  143.6758  152.3120 LP  0  0  0  0  0  0  0  0  0  0  0  0  # atno 17342 bound_to 10162
  139.7130  144.7617  151.1081 LP  0  0  0  0  0  0  0  0  0  0  0  0  # atno 17343 bound_to 10162
  156.4225  130.3955  149.6815 LP  0  0  0  0  0  0  0  0  0  0  0  0  # atno 17370 bound_to 10713
  156.4061  130.7699  151.2709 LP  0  0  0  0  0  0  0  0  0  0  0  0  # atno 17371 bound_to 10713
  141.1939  133.8139  157.0777 LP  0  0  0  0  0  0  0  0  0  0  0  0  # atno 17394 bound_to 11000
  140.0516  134.9802  157.1146 LP  0  0  0  0  0  0  0  0  0  0  0  0  # atno 17395 bound_to 11000

$$$$
