AV-unprocessed.smi:2149|AV-procd|sdf|8753|dock9
  -GOLD-   2272011533D 1   1.00000     0.00000
 Structure written by MMmdl.
 42 43  0  0  0  0  0  0  0  0  1 V2000
  147.5193  134.5674  160.4805 C   0  0  0  0  0  0  0  0  0  0  0  0
  147.5580  136.4063  160.4195 S   0  0  0  0  0  0  0  0  0  0  0  0
  146.3226  136.8547  159.7584 O   0  0  0  0  0  0  0  0  0  0  0  0
  147.9099  136.9264  161.7494 O   0  0  0  0  0  0  0  0  0  0  0  0
  148.8840  136.7408  159.3519 N   0  0  0  0  0  0  0  0  0  0  0  0
  149.1443  135.7748  158.2651 C   0  0  0  0  0  0  0  0  0  0  0  0
  150.0486  136.3782  157.1785 C   0  0  0  0  0  0  0  0  0  0  0  0
  151.3476  136.9221  157.7793 C   0  0  0  0  0  0  0  0  0  0  0  0
  151.0093  137.9587  158.8621 C   0  0  2  0  0  0  0  0  0  0  0  0
  152.2853  138.5430  159.4833 C   0  0  0  0  0  0  0  0  0  0  0  0
  153.1280  137.8003  159.9879 O   0  0  0  0  0  0  0  0  0  0  0  0
  152.4127  139.8784  159.4400 N   0  0  0  0  0  0  0  0  0  0  0  0
  153.5408  140.6336  159.9722 C   0  0  0  0  0  0  0  0  0  0  0  0
  153.1065  141.5788  161.1046 C   0  0  0  0  0  0  0  0  0  0  0  0
  152.5520  142.8889  160.5770 C   0  0  0  0  0  0  0  0  0  0  0  0
  152.4748  143.1308  159.1886 C   0  0  0  0  0  0  0  0  0  0  0  0
  151.9601  144.3664  158.7503 C   0  0  0  0  0  0  0  0  0  0  0  0
  151.5460  145.3081  159.7120 C   0  0  0  0  0  0  0  0  0  0  0  0
  151.6652  144.9707  161.0751 C   0  0  0  0  0  0  0  0  0  0  0  0
  152.1576  143.7891  161.5057 N   0  0  0  0  0  0  0  0  0  0  0  0
  150.1051  137.3278  159.9426 C   0  0  0  0  0  0  0  0  0  0  0  0
  146.6533  134.2463  161.0586 H   0  0  0  0  0  0  0  0  0  0  0  0
  148.4229  134.1883  160.9555 H   0  0  0  0  0  0  0  0  0  0  0  0
  147.4437  134.1713  159.4682 H   0  0  0  0  0  0  0  0  0  0  0  0
  149.6075  134.8828  158.6892 H   0  0  0  0  0  0  0  0  0  0  0  0
  148.2041  135.4570  157.8172 H   0  0  0  0  0  0  0  0  0  0  0  0
  150.2750  135.6245  156.4240 H   0  0  0  0  0  0  0  0  0  0  0  0
  149.5174  137.1800  156.6637 H   0  0  0  0  0  0  0  0  0  0  0  0
  151.9293  136.1010  158.2016 H   0  0  0  0  0  0  0  0  0  0  0  0
  151.9590  137.3716  156.9956 H   0  0  0  0  0  0  0  0  0  0  0  0
  150.4545  138.7735  158.3924 H   0  0  0  0  0  0  0  0  0  0  0  0
  151.6722  140.4106  159.0064 H   0  0  0  0  0  0  0  0  0  0  0  0
  154.3211  139.9525  160.3165 H   0  0  0  0  0  0  0  0  0  0  0  0
  153.9722  141.2114  159.1544 H   0  0  0  0  0  0  0  0  0  0  0  0
  152.3507  141.0946  161.7248 H   0  0  0  0  0  0  0  0  0  0  0  0
  153.9500  141.7934  161.7625 H   0  0  0  0  0  0  0  0  0  0  0  0
  152.8031  142.3894  158.4748 H   0  0  0  0  0  0  0  0  0  0  0  0
  151.8856  144.5879  157.6958 H   0  0  0  0  0  0  0  0  0  0  0  0
  151.1470  146.2659  159.4126 H   0  0  0  0  0  0  0  0  0  0  0  0
  151.3579  145.6687  161.8399 H   0  0  0  0  0  0  0  0  0  0  0  0
  149.8293  138.0927  160.6687 H   0  0  0  0  0  0  0  0  0  0  0  0
  150.6357  136.5485  160.4923 H   0  0  0  0  0  0  0  0  0  0  0  0
  1  2  1  0  0  0  0
  1 22  1  0  0  0  0
  1 23  1  0  0  0  0
  1 24  1  0  0  0  0
  2  3  2  0  0  0  0
  2  4  2  0  0  0  0
  2  5  1  0  0  0  0
  5 21  1  0  0  0  0
  5  6  1  0  0  0  0
  6  7  1  0  0  0  0
  6 25  1  0  0  0  0
  6 26  1  0  0  0  0
  7  8  1  0  0  0  0
  7 27  1  0  0  0  0
  7 28  1  0  0  0  0
  8  9  1  0  0  0  0
  8 29  1  0  0  0  0
  8 30  1  0  0  0  0
  9 10  1  0  0  0  0
  9 21  1  0  0  0  0
  9 31  1  0  0  0  0
 10 11  2  0  0  0  0
 10 12  1  0  0  0  0
 12 13  1  0  0  0  0
 12 32  1  0  0  0  0
 13 14  1  0  0  0  0
 13 33  1  0  0  0  0
 13 34  1  0  0  0  0
 14 15  1  0  0  0  0
 14 35  1  0  0  0  0
 14 36  1  0  0  0  0
 15 20  1  0  0  0  0
 15 16  2  0  0  0  0
 16 17  1  0  0  0  0
 16 37  1  0  0  0  0
 17 18  2  0  0  0  0
 17 38  1  0  0  0  0
 18 19  1  0  0  0  0
 18 39  1  0  0  0  0
 19 20  2  0  0  0  0
 19 40  1  0  0  0  0
 21 41  1  0  0  0  0
 21 42  1  0  0  0  0
M  END
> <s_m_source_file>
AV-unprocessed.smi

> <i_m_source_file_index>
2149

> <i_lp_mmshare_version>
43012

> <i_f3d_flags>
0

> <s_epik_input>
W0NIM11TKD1PKSg9TylOMVtDSDJdW0NIMl1bQ0gyXVtDQEhdKFtDSDJdMSlDKD1PKVtOSF1bQ0gyXVtDSDJdYzJbY0hdW2NIXVtjSF1bY0hdbjI=

> <s_epik_cmdline>
J2VwaWtfcHl0aG9uJywgJy1waCcsICc3LjAnLCAnLXRuJywgJzgnLCAnLW1hJywgJzIwMCcsICctbWV0YWxfYmluZGluZycsICctaW1hZScsICc8aW5maWxlLm1hZT4nLCAnLW9tYWUnLCAnPG91dGZpbGUubWFlPic=

> <r_epik_Ionization_Penalty>
0.0273806

> <r_epik_Ionization_Penalty_Charging>
0

> <r_epik_Ionization_Penalty_Neutral>
0.0273806

> <r_epik_State_Penalty>
0.0224071

> <r_epik_Charging_Adjusted_Penalty>
0.0224071

> <i_epik_Tot_Q>
0

> <i_epik_Tot_abs_Q>
0

> <r_epik_Metal_State_Penalty>
0.0214134

> <b_epik_Metal_Only>
0

> <s_lp_Force_Field>
OPLS_2005

> <r_lp_Energy>
5.16122

> <b_lp_Chiralities_Consistent>
1

> <s_lp_Variant>
AV-unprocessed.smi:2149-2

> <Gold.Version>
5.8.1

> <Gold.Id.Protein>
6NUR|6NUR_protein|mol2

> <Gold.PLP.Fitness>
44.0976

> <Gold.PLP.PLP>
-39.8010

> <Gold.PLP.part.hbond>
-2.0000

> <Gold.PLP.part.metal>
0.0000

> <Gold.PLP.part.buried>
-5.1193

> <Gold.PLP.part.nonpolar>
-33.2556

> <Gold.PLP.part.repulsive>
0.2281

> <Gold.PLP.ligand.clash>
0.0000

> <Gold.PLP.ligand.torsion>
0.8827

> <Gold.PLP.Chemscore.Hbond>
1.7600

> <Gold.PLP.Chemscore.CHOScore>
0.0000

> <Gold.PLP.Chemscore.Metal>
0.0000

> <Gold.Chemscore.Hbonds>
donor molecule, donor type, donor heavy atom, donor atom, acceptor molecule, acceptor atom, score
      P1  H  6931  6943       L1     4  1.00
      P1  H  6934  6947       L1     4  0.04

> <Gold.PLP.Chemscore.Internal.Correction>
0.7819

> <Gold.Rescore>
     Score         DG    S(hbond)    S(metal)    S(lipo)     H(rot)  DE(clash)    DE(int)     intcor
     17.20     -18.30       1.66        0.00     102.38       1.84       0.01       1.10       ----

> <Gold.Chemscore.Fitness>
17.1974

> <Gold.Chemscore.DG>
-18.3042

> <Gold.Chemscore.ZeroCoef>
-5.4800

> <Gold.Chemscore.Hbond>
1.6649

> <Gold.Chemscore.Metal>
0.0000

> <Gold.Chemscore.Lipo>
102.3835

> <Gold.Chemscore.Internal_Hbond>
0.0000

> <Gold.Chemscore.DEClash>
0.0073

> <Gold.Chemscore.DEInternal>
1.0995

> <Gold.Chemscore.Rot>
1.8419

> <Gold.Chemscore.Internal.Correction>
   9.000000E+99

> <Gold.Chemscore.Hbonds>
donor molecule, donor type, donor heavy atom, donor atom, acceptor molecule, acceptor atom, score
      P1  H  6931  6943       L1     4  0.98

> <Gold.Chemscore.Hbond.Weighted>
-5.5606

> <Gold.Chemscore.Metal.Weighted>
-0.0000

> <Gold.Chemscore.Lipo.Weighted>
-11.9789

> <Gold.Chemscore.Internal_Hbond.Weighted>
0.0000

> <Gold.Chemscore.DEClash.Weighted>
0.0073

> <Gold.Chemscore.DEInternal.Weighted>
1.0995

> <Gold.Chemscore.Rot.Weighted>
4.7153

> <Gold.Chemscore.Internal.Correction.Weighted>
   9.000000E+99

> <Gold.Protein.RotatedTorsions>
[ 6907 6896 6895 6894 ] final  -75.70 input  -60.11 | X-H torsion
[ 7974 7965 7964 7962 ] final    2.27 input  175.53 | X-H torsion
[ 8008 7997 7996 7995 ] final -171.17 input   59.86 | X-H torsion
[ 10167 10162 10161 10158 ] final  167.50 input  -65.29 | X-H torsion
[ 10718 10713 10712 10709 ] final -105.88 input   66.30 | X-H torsion
[ 10763 10752 10751 10750 ] final  133.24 input  -60.55 | X-H torsion
[ 11005 11000 10999 10996 ] final  -19.79 input  -57.11 | X-H torsion

> <Gold.Protein.ActiveResidues>
 VAL166  LYS551  ARG553  GLY616  TRP617  ASP618  TYR619  PRO620  LYS621  CYS622 
 ASP623  PHE694  ASN695  SER759  ASP760  ASP761  ALA762  ILE779  LEU786  VAL792 
 PHE793  MET794  SER795  GLU796  ALA797  LYS798  CYS799  TRP800  GLU811  SER814 

> <Gold.Protein.RotatedAtoms>
  150.7050  134.4681  159.5412 H   0  0  0  0  0  0  0  0  0  0  0  0  # atno 6907 bound_to 6896
  152.2343  134.8289  160.0478 H   0  0  0  0  0  0  0  0  0  0  0  0  # atno 6908 bound_to 6896
  151.9093  133.3522  159.3895 H   0  0  0  0  0  0  0  0  0  0  0  0  # atno 6909 bound_to 6896
  146.2443  140.0862  142.8354 H   0  0  0  0  0  0  0  0  0  0  0  0  # atno 7974 bound_to 7965
  155.9280  140.1086  157.1155 H   0  0  0  0  0  0  0  0  0  0  0  0  # atno 8008 bound_to 7997
  154.4065  140.1243  156.4831 H   0  0  0  0  0  0  0  0  0  0  0  0  # atno 8009 bound_to 7997
  155.7115  140.3471  155.4978 H   0  0  0  0  0  0  0  0  0  0  0  0  # atno 8010 bound_to 7997
  139.4947  144.3915  151.9512 H   0  0  0  0  0  0  0  0  0  0  0  0  # atno 10167 bound_to 10162
  156.0365  130.5585  150.7602 H   0  0  0  0  0  0  0  0  0  0  0  0  # atno 10718 bound_to 10713
  153.8039  135.3138  155.3393 H   0  0  0  0  0  0  0  0  0  0  0  0  # atno 10763 bound_to 10752
  154.8078  135.4686  154.0440 H   0  0  0  0  0  0  0  0  0  0  0  0  # atno 10764 bound_to 10752
  153.1797  135.6891  153.8583 H   0  0  0  0  0  0  0  0  0  0  0  0  # atno 10765 bound_to 10752
  140.8401  133.7933  155.9851 H   0  0  0  0  0  0  0  0  0  0  0  0  # atno 11005 bound_to 11000
  145.0690  140.9142  143.4893 LP  0  0  0  0  0  0  0  0  0  0  0  0  # atno 17320 bound_to 7965
  145.0992  139.2835  143.5695 LP  0  0  0  0  0  0  0  0  0  0  0  0  # atno 17321 bound_to 7965
  140.3352  144.3269  150.5978 LP  0  0  0  0  0  0  0  0  0  0  0  0  # atno 17342 bound_to 10162
  140.5612  143.2192  151.7762 LP  0  0  0  0  0  0  0  0  0  0  0  0  # atno 17343 bound_to 10162
  157.5123  131.0926  151.0182 LP  0  0  0  0  0  0  0  0  0  0  0  0  # atno 17370 bound_to 10713
  157.0535  130.5796  149.5374 LP  0  0  0  0  0  0  0  0  0  0  0  0  # atno 17371 bound_to 10713
  140.8905  134.2501  157.5097 LP  0  0  0  0  0  0  0  0  0  0  0  0  # atno 17394 bound_to 11000
  139.8703  134.9659  156.4544 LP  0  0  0  0  0  0  0  0  0  0  0  0  # atno 17395 bound_to 11000

$$$$
