AV-unprocessed.smi:2458|AV-procd|sdf|9710|dock1
  -GOLD-   2272013353D 1   1.00000     0.00000
 Structure written by MMmdl.
 47 48  0  0  0  0  0  0  0  0  1 V2000
  150.4013  139.5276  157.1719 C   0  0  0  0  0  0  0  0  0  0  0  0
  150.3586  141.0290  156.8263 C   0  0  0  0  0  0  0  0  0  0  0  0
  150.3201  141.8361  158.1386 C   0  0  0  0  0  0  0  0  0  0  0  0
  149.1910  141.3909  155.8610 C   0  0  1  0  0  0  0  0  0  0  0  0
  149.3726  140.7695  154.4546 C   0  0  0  0  0  0  0  0  0  0  0  0
  148.2150  141.1128  153.4974 C   0  0  0  0  0  0  0  0  0  0  0  0
  146.8183  140.7625  154.0533 C   0  0  1  0  0  0  0  0  0  0  0  0
  146.4962  139.2579  153.9758 C   0  0  0  0  0  0  0  0  0  0  0  0
  147.1215  138.4385  154.6485 O   0  0  0  0  0  0  0  0  0  0  0  0
  145.5074  138.9062  153.1413 N   0  0  0  0  0  0  0  0  0  0  0  0
  145.0472  137.5394  152.9338 C   0  0  0  0  0  0  0  0  0  0  0  0
  146.0118  136.7663  152.0172 C   0  0  2  0  0  0  0  0  0  0  0  0
  146.3591  137.5938  150.9241 O   0  0  0  0  0  0  0  0  0  0  0  0
  145.3967  135.4568  151.5497 C   0  0  0  0  0  0  0  0  0  0  0  0
  146.1418  134.5220  150.7984 C   0  0  0  0  0  0  0  0  0  0  0  0
  145.5184  133.3298  150.3829 C   0  0  0  0  0  0  0  0  0  0  0  0
  144.1704  133.1203  150.7346 C   0  0  0  0  0  0  0  0  0  0  0  0
  143.4452  134.0066  151.4499 N   0  0  0  0  0  0  0  0  0  0  0  0
  144.0509  135.1474  151.8446 C   0  0  0  0  0  0  0  0  0  0  0  0
  146.6531  141.3332  155.4765 C   0  0  0  0  0  0  0  0  0  0  0  0
  147.8113  140.9729  156.4245 C   0  0  0  0  0  0  0  0  0  0  0  0
  149.1834  142.4755  155.7425 H   0  0  0  0  0  0  0  0  0  0  0  0
  146.0886  141.2691  153.4190 H   0  0  0  0  0  0  0  0  0  0  0  0
  149.4494  139.1874  157.5815 H   0  0  0  0  0  0  0  0  0  0  0  0
  151.1726  139.3158  157.9129 H   0  0  0  0  0  0  0  0  0  0  0  0
  150.6352  138.9135  156.3030 H   0  0  0  0  0  0  0  0  0  0  0  0
  151.2976  141.2717  156.3268 H   0  0  0  0  0  0  0  0  0  0  0  0
  149.3644  141.7170  158.6501 H   0  0  0  0  0  0  0  0  0  0  0  0
  150.4846  142.8996  157.9706 H   0  0  0  0  0  0  0  0  0  0  0  0
  151.1032  141.5101  158.8237 H   0  0  0  0  0  0  0  0  0  0  0  0
  150.2909  141.1306  153.9937 H   0  0  0  0  0  0  0  0  0  0  0  0
  149.4849  139.6888  154.5397 H   0  0  0  0  0  0  0  0  0  0  0  0
  148.2466  142.1816  153.2821 H   0  0  0  0  0  0  0  0  0  0  0  0
  148.3740  140.6149  152.5397 H   0  0  0  0  0  0  0  0  0  0  0  0
  145.0340  139.6334  152.6247 H   0  0  0  0  0  0  0  0  0  0  0  0
  145.0104  137.0587  153.9129 H   0  0  0  0  0  0  0  0  0  0  0  0
  144.0314  137.5235  152.5341 H   0  0  0  0  0  0  0  0  0  0  0  0
  146.9291  136.5370  152.5618 H   0  0  0  0  0  0  0  0  0  0  0  0
  145.5650  137.9180  150.5279 H   0  0  0  0  0  0  0  0  0  0  0  0
  147.1733  134.7145  150.5417 H   0  0  0  0  0  0  0  0  0  0  0  0
  146.0600  132.5938  149.8072 H   0  0  0  0  0  0  0  0  0  0  0  0
  143.6609  132.2174  150.4322 H   0  0  0  0  0  0  0  0  0  0  0  0
  143.4396  135.8335  152.4124 H   0  0  0  0  0  0  0  0  0  0  0  0
  146.5779  142.4194  155.4123 H   0  0  0  0  0  0  0  0  0  0  0  0
  145.7095  140.9976  155.9091 H   0  0  0  0  0  0  0  0  0  0  0  0
  147.8056  139.9037  156.6371 H   0  0  0  0  0  0  0  0  0  0  0  0
  147.6190  141.4700  157.3741 H   0  0  0  0  0  0  0  0  0  0  0  0
  1  2  1  0  0  0  0
  1 24  1  0  0  0  0
  1 25  1  0  0  0  0
  1 26  1  0  0  0  0
  2  3  1  0  0  0  0
  2  4  1  0  0  0  0
  2 27  1  0  0  0  0
  3 28  1  0  0  0  0
  3 29  1  0  0  0  0
  3 30  1  0  0  0  0
  4 22  1  0  0  0  0
  4 21  1  0  0  0  0
  4  5  1  0  0  0  0
  5  6  1  0  0  0  0
  5 31  1  0  0  0  0
  5 32  1  0  0  0  0
  6  7  1  0  0  0  0
  6 33  1  0  0  0  0
  6 34  1  0  0  0  0
  7 23  1  0  0  0  0
  7  8  1  0  0  0  0
  7 20  1  0  0  0  0
  8  9  2  0  0  0  0
  8 10  1  0  0  0  0
 10 11  1  0  0  0  0
 10 35  1  0  0  0  0
 11 12  1  0  0  0  0
 11 36  1  0  0  0  0
 11 37  1  0  0  0  0
 12 13  1  0  0  0  0
 12 14  1  0  0  0  0
 12 38  1  0  0  0  0
 13 39  1  0  0  0  0
 14 19  1  0  0  0  0
 14 15  2  0  0  0  0
 15 16  1  0  0  0  0
 15 40  1  0  0  0  0
 16 17  2  0  0  0  0
 16 41  1  0  0  0  0
 17 18  1  0  0  0  0
 17 42  1  0  0  0  0
 18 19  2  0  0  0  0
 19 43  1  0  0  0  0
 20 21  1  0  0  0  0
 20 44  1  0  0  0  0
 20 45  1  0  0  0  0
 21 46  1  0  0  0  0
 21 47  1  0  0  0  0
M  END
> <s_m_source_file>
AV-unprocessed.smi

> <i_m_source_file_index>
2458

> <i_lp_mmshare_version>
43012

> <i_f3d_flags>
0

> <s_epik_input>
W0NIM11bQ0hdKFtDSDNdKVtDQEhdMVtDSDJdW0NIMl1bQ0BASF0oW0NIMl1bQ0gyXTEpQyg9TylbTkhdW0NIMl1bQ0BIXShbT0hdKWMyW2NIXVtjSF1bY0hdbltjSF0y

> <s_epik_cmdline>
J2VwaWtfcHl0aG9uJywgJy1waCcsICc3LjAnLCAnLXRuJywgJzgnLCAnLW1hJywgJzIwMCcsICctbWV0YWxfYmluZGluZycsICctaW1hZScsICc8aW5maWxlLm1hZT4nLCAnLW9tYWUnLCAnPG91dGZpbGUubWFlPic=

> <r_epik_Ionization_Penalty>
0.00169206

> <r_epik_Ionization_Penalty_Charging>
0

> <r_epik_Ionization_Penalty_Neutral>
0.00169206

> <r_epik_State_Penalty>
0.0011427

> <r_epik_Charging_Adjusted_Penalty>
0.0011427

> <i_epik_Tot_Q>
0

> <i_epik_Tot_abs_Q>
0

> <r_epik_Metal_State_Penalty>
-0

> <b_epik_Metal_Only>
0

> <s_lp_Force_Field>
OPLS_2005

> <r_lp_Energy>
16.378

> <b_lp_Chiralities_Consistent>
1

> <s_lp_Variant>
AV-unprocessed.smi:2458-3

> <Gold.Version>
5.8.1

> <Gold.Id.Protein>
6NUR|6NUR_protein|mol2

> <Gold.PLP.Fitness>
39.4586

> <Gold.PLP.PLP>
-31.6026

> <Gold.PLP.part.hbond>
-4.0000

> <Gold.PLP.part.metal>
0.0000

> <Gold.PLP.part.buried>
-0.8688

> <Gold.PLP.part.nonpolar>
-25.7488

> <Gold.PLP.part.repulsive>
0.2775

> <Gold.PLP.ligand.clash>
0.0000

> <Gold.PLP.ligand.torsion>
0.3667

> <Gold.PLP.Chemscore.Hbond>
2.8220

> <Gold.PLP.Chemscore.CHOScore>
0.0000

> <Gold.PLP.Chemscore.Metal>
0.0000

> <Gold.Chemscore.Hbonds>
donor molecule, donor type, donor heavy atom, donor atom, acceptor molecule, acceptor atom, score
      L1  H    10    35       P1 10175  0.91
      L1  H    13    39       P1 10171  1.00
      P1  H  7954  7966       L1    13  0.84

> <Gold.PLP.Chemscore.Internal.Correction>
0.1233

> <Gold.Rescore>
     Score         DG    S(hbond)    S(metal)    S(lipo)     H(rot)  DE(clash)    DE(int)     intcor
     17.93     -19.15       2.64        0.00      86.38       2.06       0.86       0.35       ----

> <Gold.Chemscore.Fitness>
17.9339

> <Gold.Chemscore.DG>
-19.1506

> <Gold.Chemscore.ZeroCoef>
-5.4800

> <Gold.Chemscore.Hbond>
2.6450

> <Gold.Chemscore.Metal>
0.0000

> <Gold.Chemscore.Lipo>
86.3842

> <Gold.Chemscore.Internal_Hbond>
0.0000

> <Gold.Chemscore.DEClash>
0.8628

> <Gold.Chemscore.DEInternal>
0.3539

> <Gold.Chemscore.Rot>
2.0588

> <Gold.Chemscore.Internal.Correction>
   9.000000E+99

> <Gold.Chemscore.Hbonds>
donor molecule, donor type, donor heavy atom, donor atom, acceptor molecule, acceptor atom, score
      L1  H    10    35       P1 10175  0.88
      L1  H    13    39       P1 10171  0.99
      P1  H  7954  7966       L1    13  0.78

> <Gold.Chemscore.Hbond.Weighted>
-8.8342

> <Gold.Chemscore.Metal.Weighted>
-0.0000

> <Gold.Chemscore.Lipo.Weighted>
-10.1070

> <Gold.Chemscore.Internal_Hbond.Weighted>
0.0000

> <Gold.Chemscore.DEClash.Weighted>
0.8628

> <Gold.Chemscore.DEInternal.Weighted>
0.3539

> <Gold.Chemscore.Rot.Weighted>
5.2705

> <Gold.Chemscore.Internal.Correction.Weighted>
   9.000000E+99

> <Gold.Protein.RotatedTorsions>
[ 6907 6896 6895 6894 ] final  -34.28 input  -60.11 | X-H torsion
[ 7974 7965 7964 7962 ] final   95.22 input  175.53 | X-H torsion
[ 8008 7997 7996 7995 ] final -126.91 input   59.86 | X-H torsion
[ 10167 10162 10161 10158 ] final -154.14 input  -65.29 | X-H torsion
[ 10718 10713 10712 10709 ] final   86.06 input   66.30 | X-H torsion
[ 10763 10752 10751 10750 ] final  165.96 input  -60.55 | X-H torsion
[ 11005 11000 10999 10996 ] final    9.37 input  -57.11 | X-H torsion

> <Gold.Protein.ActiveResidues>
 VAL166  LYS551  ARG553  GLY616  TRP617  ASP618  TYR619  PRO620  LYS621  CYS622 
 ASP623  PHE694  ASN695  SER759  ASP760  ASP761  ALA762  ILE779  LEU786  VAL792 
 PHE793  MET794  SER795  GLU796  ALA797  LYS798  CYS799  TRP800  GLU811  SER814 

> <Gold.Protein.RotatedAtoms>
  151.0547  134.9697  159.8229 H   0  0  0  0  0  0  0  0  0  0  0  0  # atno 6907 bound_to 6896
  152.5386  134.2493  159.8902 H   0  0  0  0  0  0  0  0  0  0  0  0  # atno 6908 bound_to 6896
  151.2510  133.4307  159.2645 H   0  0  0  0  0  0  0  0  0  0  0  0  # atno 6909 bound_to 6896
  145.4551  139.2290  143.3018 H   0  0  0  0  0  0  0  0  0  0  0  0  # atno 7974 bound_to 7965
  155.2375  140.0427  157.2970 H   0  0  0  0  0  0  0  0  0  0  0  0  # atno 8008 bound_to 7997
  154.5849  140.2411  155.7971 H   0  0  0  0  0  0  0  0  0  0  0  0  # atno 8009 bound_to 7997
  156.2219  140.2967  155.9981 H   0  0  0  0  0  0  0  0  0  0  0  0  # atno 8010 bound_to 7997
  139.7038  143.9219  152.2440 H   0  0  0  0  0  0  0  0  0  0  0  0  # atno 10167 bound_to 10162
  157.6923  131.0200  150.2915 H   0  0  0  0  0  0  0  0  0  0  0  0  # atno 10718 bound_to 10713
  154.3318  135.2754  155.2467 H   0  0  0  0  0  0  0  0  0  0  0  0  # atno 10763 bound_to 10752
  154.4776  135.5867  153.6369 H   0  0  0  0  0  0  0  0  0  0  0  0  # atno 10764 bound_to 10752
  152.9866  135.6103  154.3512 H   0  0  0  0  0  0  0  0  0  0  0  0  # atno 10765 bound_to 10752
  140.5265  134.0508  155.7860 H   0  0  0  0  0  0  0  0  0  0  0  0  # atno 11005 bound_to 11000
  146.2483  140.5314  142.8904 LP  0  0  0  0  0  0  0  0  0  0  0  0  # atno 17320 bound_to 7965
  144.8037  140.6261  143.6461 LP  0  0  0  0  0  0  0  0  0  0  0  0  # atno 17321 bound_to 7965
  139.9069  144.6879  150.8604 LP  0  0  0  0  0  0  0  0  0  0  0  0  # atno 17342 bound_to 10162
  140.7716  143.3472  151.2087 LP  0  0  0  0  0  0  0  0  0  0  0  0  # atno 17343 bound_to 10162
  156.3445  130.3821  149.7380 LP  0  0  0  0  0  0  0  0  0  0  0  0  # atno 17370 bound_to 10713
  156.4878  130.8071  151.3082 LP  0  0  0  0  0  0  0  0  0  0  0  0  # atno 17371 bound_to 10713
  141.1305  133.9310  157.2545 LP  0  0  0  0  0  0  0  0  0  0  0  0  # atno 17394 bound_to 11000
  139.9577  135.0161  156.9175 LP  0  0  0  0  0  0  0  0  0  0  0  0  # atno 17395 bound_to 11000

$$$$
