AV-unprocessed.smi:137|AV-procd|sdf|1177|dock2
  -GOLD-   2262018323D 1   1.00000     0.00000
 Structure written by MMmdl.
 51 54  0  0  0  0  0  0  0  0  1 V2000
  153.8597  141.3867  161.0972 C   0  0  0  0  0  0  0  0  0  0  0  0
  152.8146  141.9301  160.1083 C   0  0  2  0  0  0  0  0  0  0  0  0
  152.9958  141.2400  158.7386 C   0  0  0  0  0  0  0  0  0  0  0  0
  151.7580  141.0509  157.9776 N   0  0  0  0  0  0  0  0  0  0  0  0
  151.7036  140.0143  157.1002 C   0  0  0  0  0  0  0  0  0  0  0  0
  152.6293  139.9377  156.1071 N   0  0  0  0  0  0  0  0  0  0  0  0
  152.5971  138.9323  155.2279 C   0  0  0  0  0  0  0  0  0  0  0  0
  151.7397  137.9128  155.1575 N   0  0  0  0  0  0  0  0  0  0  0  0
  150.8090  137.9790  156.1523 C   0  0  0  0  0  0  0  0  0  0  0  0
  150.7224  138.9824  157.1593 C   0  0  0  0  0  0  0  0  0  0  0  0
  149.6647  138.6984  158.0160 N   0  0  0  0  0  0  0  0  0  0  0  0
  149.1548  137.5952  157.5409 C   0  0  0  0  0  0  0  0  0  0  0  0
  149.7612  137.1098  156.4044 N   0  0  0  0  0  0  0  0  0  0  0  0
  149.4308  135.9012  155.7063 C   0  0  0  0  0  0  0  0  0  0  0  0
  148.9646  134.6528  156.4616 C   0  0  0  0  0  0  0  0  0  0  0  0
  149.7323  133.7494  155.4705 C   0  0  0  0  0  0  0  0  0  0  0  0
  150.5612  132.6407  156.1373 C   0  0  0  0  0  0  0  0  0  0  0  0
  151.3453  133.1471  157.1987 O   0  0  0  0  0  0  0  0  0  0  0  0
  148.8919  133.0825  154.3590 C   0  0  0  0  0  0  0  0  0  0  0  0
  148.0841  133.9955  153.6438 O   0  0  0  0  0  0  0  0  0  0  0  0
  150.5222  135.0209  155.0894 C   0  0  0  0  0  0  0  0  0  0  0  0
  150.7334  142.0872  157.8435 C   0  0  0  0  0  0  0  0  0  0  0  0
  151.2936  143.5105  157.7226 C   0  0  0  0  0  0  0  0  0  0  0  0
  151.3844  144.2456  159.4223 S   0  0  2  0  0  0  0  0  0  0  0  0
  151.6673  145.7383  159.2451 O   0  0  0  0  0  0  0  0  0  0  0  0
  152.9599  143.4636  160.0130 C   0  0  0  0  0  0  0  0  0  0  0  0
  154.8745  141.5967  160.7569 H   0  0  0  0  0  0  0  0  0  0  0  0
  153.7654  140.3072  161.2184 H   0  0  0  0  0  0  0  0  0  0  0  0
  153.7405  141.8333  162.0848 H   0  0  0  0  0  0  0  0  0  0  0  0
  151.8371  141.6778  160.5221 H   0  0  0  0  0  0  0  0  0  0  0  0
  153.7267  141.7724  158.1289 H   0  0  0  0  0  0  0  0  0  0  0  0
  153.4213  140.2509  158.9155 H   0  0  0  0  0  0  0  0  0  0  0  0
  153.3677  138.9483  154.4713 H   0  0  0  0  0  0  0  0  0  0  0  0
  148.3136  137.1050  158.0094 H   0  0  0  0  0  0  0  0  0  0  0  0
  148.6978  136.1881  154.9514 H   0  0  0  0  0  0  0  0  0  0  0  0
  149.3661  134.6117  157.4756 H   0  0  0  0  0  0  0  0  0  0  0  0
  147.8833  134.5121  156.4692 H   0  0  0  0  0  0  0  0  0  0  0  0
  149.9144  131.8635  156.5456 H   0  0  0  0  0  0  0  0  0  0  0  0
  151.2157  132.1489  155.4167 H   0  0  0  0  0  0  0  0  0  0  0  0
  152.1152  133.5569  156.8344 H   0  0  0  0  0  0  0  0  0  0  0  0
  149.5323  132.5801  153.6335 H   0  0  0  0  0  0  0  0  0  0  0  0
  148.2361  132.3184  154.7775 H   0  0  0  0  0  0  0  0  0  0  0  0
  148.6478  134.5894  153.1717 H   0  0  0  0  0  0  0  0  0  0  0  0
  150.6641  135.1664  154.0181 H   0  0  0  0  0  0  0  0  0  0  0  0
  151.4715  135.0997  155.6217 H   0  0  0  0  0  0  0  0  0  0  0  0
  150.1519  141.9038  156.9394 H   0  0  0  0  0  0  0  0  0  0  0  0
  150.0274  142.0122  158.6711 H   0  0  0  0  0  0  0  0  0  0  0  0
  152.2508  143.5590  157.2025 H   0  0  0  0  0  0  0  0  0  0  0  0
  150.5888  144.1178  157.1546 H   0  0  0  0  0  0  0  0  0  0  0  0
  153.1635  143.8852  160.9977 H   0  0  0  0  0  0  0  0  0  0  0  0
  153.7906  143.7529  159.3687 H   0  0  0  0  0  0  0  0  0  0  0  0
  1  2  1  0  0  0  0
  1 27  1  0  0  0  0
  1 28  1  0  0  0  0
  1 29  1  0  0  0  0
  2 26  1  0  0  0  0
  2  3  1  0  0  0  0
  2 30  1  0  0  0  0
  3  4  1  0  0  0  0
  3 31  1  0  0  0  0
  3 32  1  0  0  0  0
  4  5  1  0  0  0  0
  4 22  1  0  0  0  0
  5 10  1  0  0  0  0
  5  6  2  0  0  0  0
  6  7  1  0  0  0  0
  7  8  2  0  0  0  0
  7 33  1  0  0  0  0
  8  9  1  0  0  0  0
  9 13  1  0  0  0  0
  9 10  2  0  0  0  0
 10 11  1  0  0  0  0
 11 12  2  0  0  0  0
 12 13  1  0  0  0  0
 12 34  1  0  0  0  0
 13 14  1  0  0  0  0
 14 21  1  0  0  0  0
 14 15  1  0  0  0  0
 14 35  1  0  0  0  0
 15 16  1  0  0  0  0
 15 36  1  0  0  0  0
 15 37  1  0  0  0  0
 16 17  1  0  0  0  0
 16 19  1  0  0  0  0
 16 21  1  0  0  0  0
 17 18  1  0  0  0  0
 17 38  1  0  0  0  0
 17 39  1  0  0  0  0
 18 40  1  0  0  0  0
 19 20  1  0  0  0  0
 19 41  1  0  0  0  0
 19 42  1  0  0  0  0
 20 43  1  0  0  0  0
 21 44  1  0  0  0  0
 21 45  1  0  0  0  0
 22 23  1  0  0  0  0
 22 46  1  0  0  0  0
 22 47  1  0  0  0  0
 23 24  1  0  0  0  0
 23 48  1  0  0  0  0
 23 49  1  0  0  0  0
 24 25  2  0  0  0  0
 24 26  1  0  0  0  0
 26 50  1  0  0  0  0
 26 51  1  0  0  0  0
M  END
> <s_m_source_file>
AV-unprocessed.smi

> <i_m_source_file_index>
137

> <i_lp_mmshare_version>
43012

> <i_f3d_flags>
0

> <s_epik_input>
Tz1bU0BAXShbQ0gyXTEpW0NIMl1bQ0gyXU4oW0NIMl1bQ0BIXTFbQ0gzXSljKG5bY0hdbjIpYyhjMjMpbltjSF1uM1tDSF0oW0NIMl00KVtDSDJdQzQoW0NIMl1bT0hdKVtDSDJdW09IXQ==

> <s_epik_cmdline>
J2VwaWtfcHl0aG9uJywgJy1waCcsICc3LjAnLCAnLXRuJywgJzgnLCAnLW1hJywgJzIwMCcsICctbWV0YWxfYmluZGluZycsICctaW1hZScsICc8aW5maWxlLm1hZT4nLCAnLW9tYWUnLCAnPG91dGZpbGUubWFlPic=

> <r_lp_tautomer_probability>
1

> <r_epik_Ionization_Penalty>
0.000811024

> <r_epik_Ionization_Penalty_Charging>
0

> <r_epik_Ionization_Penalty_Neutral>
0.000811024

> <r_epik_State_Penalty>
0.000429598

> <r_epik_Charging_Adjusted_Penalty>
0.000429598

> <i_epik_Tot_Q>
0

> <i_epik_Tot_abs_Q>
0

> <r_epik_Metal_State_Penalty>
-0

> <b_epik_Metal_Only>
0

> <s_lp_Force_Field>
OPLS_2005

> <r_lp_Energy>
45.689

> <b_lp_Chiralities_Consistent>
1

> <s_lp_Variant>
AV-unprocessed.smi:137-3

> <Gold.Version>
5.8.1

> <Gold.Id.Protein>
6NUR|6NUR_protein|mol2

> <Gold.PLP.Fitness>
48.4671

> <Gold.PLP.PLP>
-43.4074

> <Gold.PLP.part.hbond>
-4.0000

> <Gold.PLP.part.metal>
0.0000

> <Gold.PLP.part.buried>
-6.3319

> <Gold.PLP.part.nonpolar>
-33.9268

> <Gold.PLP.part.repulsive>
0.1906

> <Gold.PLP.ligand.clash>
0.0000

> <Gold.PLP.ligand.torsion>
1.9883

> <Gold.PLP.Chemscore.Hbond>
2.8480

> <Gold.PLP.Chemscore.CHOScore>
0.0000

> <Gold.PLP.Chemscore.Metal>
0.0000

> <Gold.Chemscore.Hbonds>
donor molecule, donor type, donor heavy atom, donor atom, acceptor molecule, acceptor atom, score
      L1  H    20    43       P1  7948  0.88
      P1  H  6896  6907       L1    18  0.80
      P1  H  7997  8009       L1     6  1.00

> <Gold.PLP.Chemscore.Internal.Correction>
0.4923

> <Gold.Rescore>
     Score         DG    S(hbond)    S(metal)    S(lipo)     H(rot)  DE(clash)    DE(int)     intcor
     12.08     -14.01       1.83        0.00      83.37       2.87       0.01       1.92       ----

> <Gold.Chemscore.Fitness>
12.0813

> <Gold.Chemscore.DG>
-14.0062

> <Gold.Chemscore.ZeroCoef>
-5.4800

> <Gold.Chemscore.Hbond>
1.8340

> <Gold.Chemscore.Metal>
0.0000

> <Gold.Chemscore.Lipo>
83.3702

> <Gold.Chemscore.Internal_Hbond>
0.0000

> <Gold.Chemscore.DEClash>
0.0089

> <Gold.Chemscore.DEInternal>
1.9161

> <Gold.Chemscore.Rot>
2.8725

> <Gold.Chemscore.Internal.Correction>
   9.000000E+99

> <Gold.Chemscore.Hbonds>
donor molecule, donor type, donor heavy atom, donor atom, acceptor molecule, acceptor atom, score
      L1  H    20    43       P1  7948  0.21
      P1  H  6896  6907       L1    18  0.56
      P1  H  7997  8009       L1     6  0.34

> <Gold.Chemscore.Hbond.Weighted>
-6.1254

> <Gold.Chemscore.Metal.Weighted>
-0.0000

> <Gold.Chemscore.Lipo.Weighted>
-9.7543

> <Gold.Chemscore.Internal_Hbond.Weighted>
0.0000

> <Gold.Chemscore.DEClash.Weighted>
0.0089

> <Gold.Chemscore.DEInternal.Weighted>
1.9161

> <Gold.Chemscore.Rot.Weighted>
7.3535

> <Gold.Chemscore.Internal.Correction.Weighted>
   9.000000E+99

> <Gold.Protein.RotatedTorsions>
[ 6907 6896 6895 6894 ] final -157.51 input  -60.11 | X-H torsion
[ 7974 7965 7964 7962 ] final -147.34 input  175.53 | X-H torsion
[ 8008 7997 7996 7995 ] final -166.18 input   59.86 | X-H torsion
[ 10167 10162 10161 10158 ] final  -93.67 input  -65.29 | X-H torsion
[ 10718 10713 10712 10709 ] final    8.25 input   66.30 | X-H torsion
[ 10763 10752 10751 10750 ] final  -19.84 input  -60.55 | X-H torsion
[ 11005 11000 10999 10996 ] final -177.59 input  -57.11 | X-H torsion

> <Gold.Protein.ActiveResidues>
 VAL166  LYS551  ARG553  GLY616  TRP617  ASP618  TYR619  PRO620  LYS621  CYS622 
 ASP623  PHE694  ASN695  SER759  ASP760  ASP761  ALA762  ILE779  LEU786  VAL792 
 PHE793  MET794  SER795  GLU796  ALA797  LYS798  CYS799  TRP800  GLU811  SER814 

> <Gold.Protein.RotatedAtoms>
  151.3039  133.4110  159.2641 H   0  0  0  0  0  0  0  0  0  0  0  0  # atno 6907 bound_to 6896
  151.0172  134.9442  159.8050 H   0  0  0  0  0  0  0  0  0  0  0  0  # atno 6908 bound_to 6896
  152.5315  134.3003  159.9128 H   0  0  0  0  0  0  0  0  0  0  0  0  # atno 6909 bound_to 6896
  144.8100  140.5340  143.5649 H   0  0  0  0  0  0  0  0  0  0  0  0  # atno 7974 bound_to 7965
  155.8602  140.0977  157.1618 H   0  0  0  0  0  0  0  0  0  0  0  0  # atno 8008 bound_to 7997
  154.3990  140.1366  156.4014 H   0  0  0  0  0  0  0  0  0  0  0  0  # atno 8009 bound_to 7997
  155.7865  140.3457  155.5328 H   0  0  0  0  0  0  0  0  0  0  0  0  # atno 8010 bound_to 7997
  140.3223  143.3042  152.0033 H   0  0  0  0  0  0  0  0  0  0  0  0  # atno 10167 bound_to 10162
  156.9489  130.5889  149.5656 H   0  0  0  0  0  0  0  0  0  0  0  0  # atno 10718 bound_to 10713
  153.6111  135.6996  153.5346 H   0  0  0  0  0  0  0  0  0  0  0  0  # atno 10763 bound_to 10752
  153.3016  135.4127  155.1257 H   0  0  0  0  0  0  0  0  0  0  0  0  # atno 10764 bound_to 10752
  154.8563  135.3650  154.5649 H   0  0  0  0  0  0  0  0  0  0  0  0  # atno 10765 bound_to 10752
  140.4392  134.6447  157.4749 H   0  0  0  0  0  0  0  0  0  0  0  0  # atno 11005 bound_to 11000
  145.5347  139.1475  143.3480 LP  0  0  0  0  0  0  0  0  0  0  0  0  # atno 17320 bound_to 7965
  146.2397  140.5487  142.8939 LP  0  0  0  0  0  0  0  0  0  0  0  0  # atno 17321 bound_to 7965
  139.4872  144.6301  151.7087 LP  0  0  0  0  0  0  0  0  0  0  0  0  # atno 17342 bound_to 10162
  140.5472  144.0484  150.6112 LP  0  0  0  0  0  0  0  0  0  0  0  0  # atno 17343 bound_to 10162
  156.0371  130.5458  150.8681 LP  0  0  0  0  0  0  0  0  0  0  0  0  # atno 17370 bound_to 10713
  157.5735  131.0946  150.9381 LP  0  0  0  0  0  0  0  0  0  0  0  0  # atno 17371 bound_to 10713
  140.0081  134.6732  155.9422 LP  0  0  0  0  0  0  0  0  0  0  0  0  # atno 17394 bound_to 11000
  141.1713  133.6537  156.4662 LP  0  0  0  0  0  0  0  0  0  0  0  0  # atno 17395 bound_to 11000

$$$$
