AV-unprocessed.smi:290|AV-procd|sdf|2240|dock8
  -GOLD-   2262022113D 1   1.00000     0.00000
 Structure written by MMmdl.
 59 62  0  0  0  0  0  0  0  0  2 V2000
  145.9852  142.9986  153.8375 C   0  0  0  0  0  0  0  0  0  0  0  0
  146.6616  142.0084  154.7994 C   0  0  1  0  0  0  0  0  0  0  0  0
  145.6836  141.2898  155.5507 O   0  0  0  0  0  0  0  0  0  0  0  0
  145.8482  139.8923  155.3562 C   0  0  0  0  0  0  0  0  0  0  0  0
  147.3256  139.7323  155.0233 C   0  0  0  0  0  0  0  0  0  0  0  0
  147.6028  140.9579  154.1640 C   0  0  1  0  0  0  0  0  0  0  0  0
  147.2090  140.6655  152.8323 O   0  0  0  0  0  0  0  0  0  0  0  0
  149.0855  141.4001  154.1517 C   0  0  0  0  0  0  0  0  0  0  0  0
  149.7572  141.2121  155.4288 N   0  0  0  0  0  0  0  0  0  0  0  0
  149.4088  141.7786  156.6325 C   0  0  0  0  0  0  0  0  0  0  0  0
  150.1771  141.4600  157.6371 N   0  0  0  0  0  0  0  0  0  0  0  0
  151.1212  140.5928  157.0952 C   0  0  0  0  0  0  0  0  0  0  0  0
  152.2438  139.8755  157.6107 C   0  0  0  0  0  0  0  0  0  0  0  0
  152.6620  139.8862  158.9050 N   0  0  0  0  0  0  0  0  0  0  0  0
  152.5305  138.7100  159.7475 C   0  0  0  0  0  0  0  0  0  0  0  0
  153.7358  138.7685  160.6757 C   0  0  0  0  0  0  0  0  0  0  0  0
  154.0043  140.2718  160.8538 C   0  0  1  0  0  0  0  0  0  0  0  0
  155.4173  140.5465  161.2669 N   0  3  2  0  0  0  0  0  0  0  0  0
  156.3720  140.2739  160.1604 C   0  0  0  0  0  0  0  0  0  0  0  0
  155.8279  139.8922  162.5432 C   0  0  0  0  0  0  0  0  0  0  0  0
  157.3474  139.8979  162.7974 C   0  0  0  0  0  0  0  0  0  0  0  0
  157.7411  141.1231  163.3789 O   0  0  0  0  0  0  0  0  0  0  0  0
  153.5732  140.8680  159.4861 C   0  0  2  0  0  0  0  0  0  0  0  0
  152.8615  142.2321  159.6267 C   0  0  0  0  0  0  0  0  0  0  0  0
  152.9518  139.1193  156.7311 N   0  0  0  0  0  0  0  0  0  0  0  0
  152.5957  139.0544  155.4459 C   0  0  0  0  0  0  0  0  0  0  0  0
  151.5795  139.6602  154.8326 N   0  0  0  0  0  0  0  0  0  0  0  0
  150.8652  140.4292  155.7020 C   0  0  0  0  0  0  0  0  0  0  0  0
  153.3320  140.6482  161.6274 H   0  0  0  0  0  0  0  0  0  0  0  0
  154.4464  140.9437  158.8393 H   0  0  0  0  0  0  0  0  0  0  0  0
  146.7251  143.5417  153.2496 H   0  0  0  0  0  0  0  0  0  0  0  0
  145.3974  143.7318  154.3897 H   0  0  0  0  0  0  0  0  0  0  0  0
  145.3094  142.4924  153.1477 H   0  0  0  0  0  0  0  0  0  0  0  0
  147.2249  142.5842  155.5348 H   0  0  0  0  0  0  0  0  0  0  0  0
  145.5496  139.3261  156.2385 H   0  0  0  0  0  0  0  0  0  0  0  0
  145.2267  139.5727  154.5188 H   0  0  0  0  0  0  0  0  0  0  0  0
  147.9035  139.7814  155.9469 H   0  0  0  0  0  0  0  0  0  0  0  0
  147.5574  138.7857  154.5333 H   0  0  0  0  0  0  0  0  0  0  0  0
  147.9827  140.4623  152.3295 H   0  0  0  0  0  0  0  0  0  0  0  0
  149.6368  140.8477  153.3893 H   0  0  0  0  0  0  0  0  0  0  0  0
  149.1643  142.4534  153.8792 H   0  0  0  0  0  0  0  0  0  0  0  0
  148.5659  142.4462  156.7400 H   0  0  0  0  0  0  0  0  0  0  0  0
  151.5989  138.7789  160.3106 H   0  0  0  0  0  0  0  0  0  0  0  0
  152.5211  137.7798  159.1778 H   0  0  0  0  0  0  0  0  0  0  0  0
  153.5470  138.2459  161.6137 H   0  0  0  0  0  0  0  0  0  0  0  0
  154.5874  138.2908  160.1883 H   0  0  0  0  0  0  0  0  0  0  0  0
  156.4405  139.2040  159.9605 H   0  0  0  0  0  0  0  0  0  0  0  0
  157.3699  140.6460  160.3856 H   0  0  0  0  0  0  0  0  0  0  0  0
  156.0781  140.7700  159.2366 H   0  0  0  0  0  0  0  0  0  0  0  0
  155.3773  140.4071  163.3894 H   0  0  0  0  0  0  0  0  0  0  0  0
  155.4538  138.8677  162.5587 H   0  0  0  0  0  0  0  0  0  0  0  0
  157.6010  139.0977  163.4931 H   0  0  0  0  0  0  0  0  0  0  0  0
  157.9255  139.7060  161.8943 H   0  0  0  0  0  0  0  0  0  0  0  0
  158.0357  140.9570  164.2621 H   0  0  0  0  0  0  0  0  0  0  0  0
  153.4927  142.9890  160.0878 H   0  0  0  0  0  0  0  0  0  0  0  0
  151.9655  142.1422  160.2419 H   0  0  0  0  0  0  0  0  0  0  0  0
  152.5478  142.6257  158.6606 H   0  0  0  0  0  0  0  0  0  0  0  0
  153.2143  138.4285  154.8197 H   0  0  0  0  0  0  0  0  0  0  0  0
  155.4636  141.5396  161.4471 H   0  0  0  0  0  0  0  0  0  0  0  0
  1  2  1  0  0  0  0
  1 31  1  0  0  0  0
  1 32  1  0  0  0  0
  1 33  1  0  0  0  0
  2  6  1  0  0  0  0
  2  3  1  0  0  0  0
  2 34  1  0  0  0  0
  3  4  1  0  0  0  0
  4  5  1  0  0  0  0
  4 35  1  0  0  0  0
  4 36  1  0  0  0  0
  5  6  1  0  0  0  0
  5 37  1  0  0  0  0
  5 38  1  0  0  0  0
  6  7  1  0  0  0  0
  6  8  1  0  0  0  0
  7 39  1  0  0  0  0
  8  9  1  0  0  0  0
  8 40  1  0  0  0  0
  8 41  1  0  0  0  0
  9 28  1  0  0  0  0
  9 10  1  0  0  0  0
 10 11  2  0  0  0  0
 10 42  1  0  0  0  0
 11 12  1  0  0  0  0
 12 28  2  0  0  0  0
 12 13  1  0  0  0  0
 13 14  1  0  0  0  0
 13 25  2  0  0  0  0
 14 23  1  0  0  0  0
 14 15  1  0  0  0  0
 15 16  1  0  0  0  0
 15 43  1  0  0  0  0
 15 44  1  0  0  0  0
 16 17  1  0  0  0  0
 16 45  1  0  0  0  0
 16 46  1  0  0  0  0
 17 29  1  0  0  0  0
 17 18  1  0  0  0  0
 17 23  1  0  0  0  0
 18 19  1  0  0  0  0
 18 20  1  0  0  0  0
 18 59  1  0  0  0  0
 19 47  1  0  0  0  0
 19 48  1  0  0  0  0
 19 49  1  0  0  0  0
 20 21  1  0  0  0  0
 20 50  1  0  0  0  0
 20 51  1  0  0  0  0
 21 22  1  0  0  0  0
 21 52  1  0  0  0  0
 21 53  1  0  0  0  0
 22 54  1  0  0  0  0
 23 30  1  0  0  0  0
 23 24  1  0  0  0  0
 24 55  1  0  0  0  0
 24 56  1  0  0  0  0
 24 57  1  0  0  0  0
 25 26  1  0  0  0  0
 26 27  2  0  0  0  0
 26 58  1  0  0  0  0
 27 28  1  0  0  0  0
M  CHG  1  18   1
M  END
> <s_m_source_file>
AV-unprocessed.smi

> <i_m_source_file_index>
290

> <i_lp_mmshare_version>
43012

> <i_f3d_flags>
0

> <s_epik_input>
W0NIMl0xW0NIMl1PW0NAQEhdKFtDSDNdKVtDQEBdMShbT0hdKVtDSDJdbihbY0hdbjIpYyhjMjMpbltjSF1uYzNONFtDSDJdW0NIMl1bQ0BIXShbQ0BIXTRbQ0gzXSlOKFtDSDNdKVtDSDJdW0NIMl1bT0hd

> <s_epik_cmdline>
J2VwaWtfcHl0aG9uJywgJy1waCcsICc3LjAnLCAnLXRuJywgJzgnLCAnLW1hJywgJzIwMCcsICctbWV0YWxfYmluZGluZycsICctaW1hZScsICc8aW5maWxlLm1hZT4nLCAnLW9tYWUnLCAnPG91dGZpbGUubWFlPic=

> <r_lp_tautomer_probability>
1

> <r_epik_Ionization_Penalty>
0.0036983

> <r_epik_Ionization_Penalty_Charging>
0.0032725

> <r_epik_Ionization_Penalty_Neutral>
0.000425798

> <r_epik_State_Penalty>
-0

> <r_epik_Charging_Adjusted_Penalty>
0.0032725

> <i_epik_Tot_Q>
1

> <i_epik_Tot_abs_Q>
1

> <r_epik_Metal_State_Penalty>
-0

> <b_epik_Metal_Only>
0

> <s_lp_Force_Field>
OPLS_2005

> <r_lp_Energy>
64.7492

> <b_lp_Chiralities_Consistent>
1

> <s_lp_Variant>
AV-unprocessed.smi:290-26

> <Gold.Version>
5.8.1

> <Gold.Id.Protein>
6NUR|6NUR_protein|mol2

> <Gold.PLP.Fitness>
52.9792

> <Gold.PLP.PLP>
-46.3834

> <Gold.PLP.part.hbond>
-4.6370

> <Gold.PLP.part.metal>
0.0000

> <Gold.PLP.part.buried>
-2.1803

> <Gold.PLP.part.nonpolar>
-39.2714

> <Gold.PLP.part.repulsive>
0.2054

> <Gold.PLP.ligand.clash>
0.0000

> <Gold.PLP.ligand.torsion>
2.1070

> <Gold.PLP.Chemscore.Hbond>
2.8000

> <Gold.PLP.Chemscore.CHOScore>
0.7022

> <Gold.PLP.Chemscore.Metal>
0.0000

> <Gold.Chemscore.Hbonds>
donor molecule, donor type, donor heavy atom, donor atom, acceptor molecule, acceptor atom, score
      L1  H     7    39       P1  7957  1.00
      P1  H  7989  7998       L1    27  0.85
      P1  H  7997  8009       L1    25  0.95
      L1  C    10    42       P1  8028  0.70

> <Gold.PLP.Chemscore.Internal.Correction>
0.3032

> <Gold.Rescore>
     Score         DG    S(hbond)    S(metal)    S(lipo)     H(rot)  DE(clash)    DE(int)     intcor
      9.37     -11.95       1.48        0.00      86.43       3.35       0.23       2.35       ----

> <Gold.Chemscore.Fitness>
9.3671

> <Gold.Chemscore.DG>
-11.9491

> <Gold.Chemscore.ZeroCoef>
-5.4800

> <Gold.Chemscore.Hbond>
1.4782

> <Gold.Chemscore.Metal>
0.0000

> <Gold.Chemscore.Lipo>
86.4300

> <Gold.Chemscore.Internal_Hbond>
0.0000

> <Gold.Chemscore.DEClash>
0.2279

> <Gold.Chemscore.DEInternal>
2.3541

> <Gold.Chemscore.Rot>
3.3518

> <Gold.Chemscore.Internal.Correction>
   9.000000E+99

> <Gold.Chemscore.Hbonds>
donor molecule, donor type, donor heavy atom, donor atom, acceptor molecule, acceptor atom, score
      L1  H     7    39       P1  7957  0.93
      P1  H  7989  7998       L1    27  0.15
      P1  H  7997  8009       L1    25  0.09

> <Gold.Chemscore.Hbond.Weighted>
-4.9373

> <Gold.Chemscore.Metal.Weighted>
-0.0000

> <Gold.Chemscore.Lipo.Weighted>
-10.1123

> <Gold.Chemscore.Internal_Hbond.Weighted>
0.0000

> <Gold.Chemscore.DEClash.Weighted>
0.2279

> <Gold.Chemscore.DEInternal.Weighted>
2.3541

> <Gold.Chemscore.Rot.Weighted>
8.5806

> <Gold.Chemscore.Internal.Correction.Weighted>
   9.000000E+99

> <Gold.Protein.RotatedTorsions>
[ 6907 6896 6895 6894 ] final  129.97 input  -60.11 | X-H torsion
[ 7974 7965 7964 7962 ] final  -34.40 input  175.53 | X-H torsion
[ 8008 7997 7996 7995 ] final  175.29 input   59.86 | X-H torsion
[ 10167 10162 10161 10158 ] final  -73.41 input  -65.29 | X-H torsion
[ 10718 10713 10712 10709 ] final   15.89 input   66.30 | X-H torsion
[ 10763 10752 10751 10750 ] final   87.84 input  -60.55 | X-H torsion
[ 11005 11000 10999 10996 ] final  108.10 input  -57.11 | X-H torsion

> <Gold.Protein.ActiveResidues>
 VAL166  LYS551  ARG553  GLY616  TRP617  ASP618  TYR619  PRO620  LYS621  CYS622 
 ASP623  PHE694  ASN695  SER759  ASP760  ASP761  ALA762  ILE779  LEU786  VAL792 
 PHE793  MET794  SER795  GLU796  ALA797  LYS798  CYS799  TRP800  GLU811  SER814 

> <Gold.Protein.RotatedAtoms>
  152.3572  133.6252  159.5987 H   0  0  0  0  0  0  0  0  0  0  0  0  # atno 6907 bound_to 6896
  150.7576  133.9481  159.3486 H   0  0  0  0  0  0  0  0  0  0  0  0  # atno 6908 bound_to 6896
  151.7324  135.0873  160.0353 H   0  0  0  0  0  0  0  0  0  0  0  0  # atno 6909 bound_to 6896
  146.0832  140.6034  142.8898 H   0  0  0  0  0  0  0  0  0  0  0  0  # atno 7974 bound_to 7965
  156.0886  140.1413  156.9621 H   0  0  0  0  0  0  0  0  0  0  0  0  # atno 8008 bound_to 7997
  154.4628  140.0937  156.6987 H   0  0  0  0  0  0  0  0  0  0  0  0  # atno 8009 bound_to 7997
  155.4957  140.3449  155.4364 H   0  0  0  0  0  0  0  0  0  0  0  0  # atno 8010 bound_to 7997
  140.5112  143.2344  151.7590 H   0  0  0  0  0  0  0  0  0  0  0  0  # atno 10167 bound_to 10162
  157.0600  130.6305  149.5784 H   0  0  0  0  0  0  0  0  0  0  0  0  # atno 10718 bound_to 10713
  153.1708  135.4529  154.9900 H   0  0  0  0  0  0  0  0  0  0  0  0  # atno 10763 bound_to 10752
  154.7964  135.3239  154.7658 H   0  0  0  0  0  0  0  0  0  0  0  0  # atno 10764 bound_to 10752
  153.8135  135.6953  153.4892 H   0  0  0  0  0  0  0  0  0  0  0  0  # atno 10765 bound_to 10752
  139.8838  134.9420  156.5921 H   0  0  0  0  0  0  0  0  0  0  0  0  # atno 11005 bound_to 11000
  144.7307  140.4664  143.6939 LP  0  0  0  0  0  0  0  0  0  0  0  0  # atno 17320 bound_to 7965
  145.6179  139.1520  143.3039 LP  0  0  0  0  0  0  0  0  0  0  0  0  # atno 17321 bound_to 7965
  139.4897  144.4388  151.9789 LP  0  0  0  0  0  0  0  0  0  0  0  0  # atno 17342 bound_to 10162
  140.3480  144.3123  150.5954 LP  0  0  0  0  0  0  0  0  0  0  0  0  # atno 17343 bound_to 10162
  155.9981  130.5054  150.7559 LP  0  0  0  0  0  0  0  0  0  0  0  0  # atno 17370 bound_to 10713
  157.4962  131.0915  151.0368 LP  0  0  0  0  0  0  0  0  0  0  0  0  # atno 17371 bound_to 10713
  140.7948  133.8553  155.8676 LP  0  0  0  0  0  0  0  0  0  0  0  0  # atno 17394 bound_to 11000
  140.9645  134.1612  157.4627 LP  0  0  0  0  0  0  0  0  0  0  0  0  # atno 17395 bound_to 11000

$$$$
