AV-unprocessed.smi:3318|AV-procd|sdf|12764|dock8
  -GOLD-   2272019103D 1   1.00000     0.00000
 Structure written by MMmdl.
 44 45  0  0  0  0  0  0  0  0  2 V2000
  150.9618  142.2630  158.8472 C   0  0  0  0  0  0  0  0  0  0  0  0
  150.4129  141.4209  157.6878 C   0  0  0  0  0  0  0  0  0  0  0  0
  151.2811  141.4970  156.4166 C   0  0  0  0  0  0  0  0  0  0  0  0
  150.6777  140.8147  155.2706 N   0  0  0  0  0  0  0  0  0  0  0  0
  149.3121  141.3123  155.0900 C   0  0  0  0  0  0  0  0  0  0  0  0
  148.6819  140.6952  153.8297 C   0  0  0  0  0  0  0  0  0  0  0  0
  148.6462  139.1630  153.9235 C   0  0  0  0  0  0  0  0  0  0  0  0
  148.1179  138.5890  152.6663 N   0  3  0  0  0  0  0  0  0  0  0  0
  146.6510  138.6650  152.5051 C   0  0  0  0  0  0  0  0  0  0  0  0
  145.9425  137.7153  153.4807 C   0  0  0  0  0  0  0  0  0  0  0  0
  145.3363  136.5150  152.7782 C   0  0  0  0  0  0  0  0  0  0  0  0
  145.5228  136.3193  151.3931 C   0  0  0  0  0  0  0  0  0  0  0  0
  144.9360  135.1894  150.7904 C   0  0  0  0  0  0  0  0  0  0  0  0
  144.1885  134.3050  151.5917 C   0  0  0  0  0  0  0  0  0  0  0  0
  144.0608  134.5898  152.9657 C   0  0  0  0  0  0  0  0  0  0  0  0
  144.6191  135.6706  153.5533 N   0  0  0  0  0  0  0  0  0  0  0  0
  150.0659  138.6579  154.2361 C   0  0  0  0  0  0  0  0  0  0  0  0
  150.6444  139.3627  155.4759 C   0  0  0  0  0  0  0  0  0  0  0  0
  150.2910  142.2242  159.7057 H   0  0  0  0  0  0  0  0  0  0  0  0
  151.0712  143.3084  158.5578 H   0  0  0  0  0  0  0  0  0  0  0  0
  151.9369  141.9009  159.1739 H   0  0  0  0  0  0  0  0  0  0  0  0
  150.2686  140.3912  158.0122 H   0  0  0  0  0  0  0  0  0  0  0  0
  149.4166  141.7888  157.4415 H   0  0  0  0  0  0  0  0  0  0  0  0
  151.4879  142.5372  156.1600 H   0  0  0  0  0  0  0  0  0  0  0  0
  152.2453  141.0401  156.6445 H   0  0  0  0  0  0  0  0  0  0  0  0
  148.7076  141.0868  155.9701 H   0  0  0  0  0  0  0  0  0  0  0  0
  149.3281  142.3979  154.9827 H   0  0  0  0  0  0  0  0  0  0  0  0
  147.6719  141.0850  153.6976 H   0  0  0  0  0  0  0  0  0  0  0  0
  149.2509  141.0057  152.9517 H   0  0  0  0  0  0  0  0  0  0  0  0
  147.9767  138.8870  154.7396 H   0  0  0  0  0  0  0  0  0  0  0  0
  148.5319  139.1000  151.8998 H   0  0  0  0  0  0  0  0  0  0  0  0
  146.3148  139.6873  152.6777 H   0  0  0  0  0  0  0  0  0  0  0  0
  146.3865  138.4053  151.4791 H   0  0  0  0  0  0  0  0  0  0  0  0
  146.6447  137.3685  154.2402 H   0  0  0  0  0  0  0  0  0  0  0  0
  145.1524  138.2466  154.0137 H   0  0  0  0  0  0  0  0  0  0  0  0
  146.1008  137.0157  150.8034 H   0  0  0  0  0  0  0  0  0  0  0  0
  145.0572  135.0045  149.7333 H   0  0  0  0  0  0  0  0  0  0  0  0
  143.7246  133.4285  151.1636 H   0  0  0  0  0  0  0  0  0  0  0  0
  143.4943  133.9331  153.6093 H   0  0  0  0  0  0  0  0  0  0  0  0
  150.0604  137.5821  154.4116 H   0  0  0  0  0  0  0  0  0  0  0  0
  150.7225  138.8293  153.3815 H   0  0  0  0  0  0  0  0  0  0  0  0
  151.6480  138.9791  155.6525 H   0  0  0  0  0  0  0  0  0  0  0  0
  150.0514  139.1212  156.3597 H   0  0  0  0  0  0  0  0  0  0  0  0
  148.4098  137.6241  152.6018 H   0  0  0  0  0  0  0  0  0  0  0  0
  1  2  1  0  0  0  0
  1 19  1  0  0  0  0
  1 20  1  0  0  0  0
  1 21  1  0  0  0  0
  2  3  1  0  0  0  0
  2 22  1  0  0  0  0
  2 23  1  0  0  0  0
  3  4  1  0  0  0  0
  3 24  1  0  0  0  0
  3 25  1  0  0  0  0
  4 18  1  0  0  0  0
  4  5  1  0  0  0  0
  5  6  1  0  0  0  0
  5 26  1  0  0  0  0
  5 27  1  0  0  0  0
  6  7  1  0  0  0  0
  6 28  1  0  0  0  0
  6 29  1  0  0  0  0
  7  8  1  0  0  0  0
  7 17  1  0  0  0  0
  7 30  1  0  0  0  0
  8  9  1  0  0  0  0
  8 31  1  0  0  0  0
  8 44  1  0  0  0  0
  9 10  1  0  0  0  0
  9 32  1  0  0  0  0
  9 33  1  0  0  0  0
 10 11  1  0  0  0  0
 10 34  1  0  0  0  0
 10 35  1  0  0  0  0
 11 16  1  0  0  0  0
 11 12  2  0  0  0  0
 12 13  1  0  0  0  0
 12 36  1  0  0  0  0
 13 14  2  0  0  0  0
 13 37  1  0  0  0  0
 14 15  1  0  0  0  0
 14 38  1  0  0  0  0
 15 16  2  0  0  0  0
 15 39  1  0  0  0  0
 17 18  1  0  0  0  0
 17 40  1  0  0  0  0
 17 41  1  0  0  0  0
 18 42  1  0  0  0  0
 18 43  1  0  0  0  0
M  CHG  1   8   1
M  END
> <s_m_source_file>
AV-unprocessed.smi

> <i_m_source_file_index>
3318

> <i_lp_mmshare_version>
43012

> <i_f3d_flags>
0

> <s_epik_input>
W0NIM11bQ0gyXVtDSDJdTjFbQ0gyXVtDSDJdW0NIXShbQ0gyXVtDSDJdMSlbTkhdW0NIMl1bQ0gyXWMyW2NIXVtjSF1bY0hdW2NIXW4y

> <s_epik_cmdline>
J2VwaWtfcHl0aG9uJywgJy1waCcsICc3LjAnLCAnLXRuJywgJzgnLCAnLW1hJywgJzIwMCcsICctbWV0YWxfYmluZGluZycsICctaW1hZScsICc8aW5maWxlLm1hZT4nLCAnLW9tYWUnLCAnPG91dGZpbGUubWFlPic=

> <r_epik_Ionization_Penalty>
1.50803

> <r_epik_Ionization_Penalty_Charging>
0.000531593

> <r_epik_Ionization_Penalty_Neutral>
1.5075

> <r_epik_State_Penalty>
1.60727

> <r_epik_Charging_Adjusted_Penalty>
1.6078

> <i_epik_Tot_Q>
1

> <i_epik_Tot_abs_Q>
1

> <r_epik_Metal_State_Penalty>
1.6087

> <b_epik_Metal_Only>
0

> <s_lp_Force_Field>
OPLS_2005

> <r_lp_Energy>
19.6285

> <b_lp_Chiralities_Consistent>
1

> <s_lp_Variant>
AV-unprocessed.smi:3318-3

> <Gold.Version>
5.8.1

> <Gold.Id.Protein>
6NUR|6NUR_protein|mol2

> <Gold.PLP.Fitness>
46.3159

> <Gold.PLP.PLP>
-33.0426

> <Gold.PLP.part.hbond>
-3.0000

> <Gold.PLP.part.metal>
0.0000

> <Gold.PLP.part.buried>
-2.5045

> <Gold.PLP.part.nonpolar>
-28.3007

> <Gold.PLP.part.repulsive>
0.1836

> <Gold.PLP.ligand.clash>
0.0000

> <Gold.PLP.ligand.torsion>
0.5822

> <Gold.PLP.Chemscore.Hbond>
3.8320

> <Gold.PLP.Chemscore.CHOScore>
0.9661

> <Gold.PLP.Chemscore.Metal>
0.0000

> <Gold.Chemscore.Hbonds>
donor molecule, donor type, donor heavy atom, donor atom, acceptor molecule, acceptor atom, score
      L1  H     8    31       P1  7957  1.00
      L1  H     8    44       P1  7948  2.00
      P1  H  7989  7998       L1     4  0.82
      L1  C    15    39       P1 10957  0.82

> <Gold.PLP.Chemscore.Internal.Correction>
0.0435

> <Gold.Rescore>
     Score         DG    S(hbond)    S(metal)    S(lipo)     H(rot)  DE(clash)    DE(int)     intcor
     18.10     -18.81       1.97        0.00      90.33       1.48       0.22       0.49       ----

> <Gold.Chemscore.Fitness>
18.1041

> <Gold.Chemscore.DG>
-18.8144

> <Gold.Chemscore.ZeroCoef>
-5.4800

> <Gold.Chemscore.Hbond>
1.9656

> <Gold.Chemscore.Metal>
0.0000

> <Gold.Chemscore.Lipo>
90.3287

> <Gold.Chemscore.Internal_Hbond>
0.0000

> <Gold.Chemscore.DEClash>
0.2191

> <Gold.Chemscore.DEInternal>
0.4912

> <Gold.Chemscore.Rot>
1.4840

> <Gold.Chemscore.Internal.Correction>
   9.000000E+99

> <Gold.Chemscore.Hbonds>
donor molecule, donor type, donor heavy atom, donor atom, acceptor molecule, acceptor atom, score
      L1  H     8    31       P1  7957  0.94
      L1  H     8    44       P1  7948  0.98
      P1  H  7989  7998       L1     4  0.13

> <Gold.Chemscore.Hbond.Weighted>
-6.5651

> <Gold.Chemscore.Metal.Weighted>
-0.0000

> <Gold.Chemscore.Lipo.Weighted>
-10.5685

> <Gold.Chemscore.Internal_Hbond.Weighted>
0.0000

> <Gold.Chemscore.DEClash.Weighted>
0.2191

> <Gold.Chemscore.DEInternal.Weighted>
0.4912

> <Gold.Chemscore.Rot.Weighted>
3.7991

> <Gold.Chemscore.Internal.Correction.Weighted>
   9.000000E+99

> <Gold.Protein.RotatedTorsions>
[ 6907 6896 6895 6894 ] final -127.42 input  -60.11 | X-H torsion
[ 7974 7965 7964 7962 ] final   44.11 input  175.53 | X-H torsion
[ 8008 7997 7996 7995 ] final -155.95 input   59.86 | X-H torsion
[ 10167 10162 10161 10158 ] final -129.83 input  -65.29 | X-H torsion
[ 10718 10713 10712 10709 ] final  -73.77 input   66.30 | X-H torsion
[ 10763 10752 10751 10750 ] final   38.50 input  -60.55 | X-H torsion
[ 11005 11000 10999 10996 ] final  -85.37 input  -57.11 | X-H torsion

> <Gold.Protein.ActiveResidues>
 VAL166  LYS551  ARG553  GLY616  TRP617  ASP618  TYR619  PRO620  LYS621  CYS622 
 ASP623  PHE694  ASN695  SER759  ASP760  ASP761  ALA762  ILE779  LEU786  VAL792 
 PHE793  MET794  SER795  GLU796  ALA797  LYS798  CYS799  TRP800  GLU811  SER814 

> <Gold.Protein.RotatedAtoms>
  150.9071  133.7044  159.2863 H   0  0  0  0  0  0  0  0  0  0  0  0  # atno 6907 bound_to 6896
  151.4543  135.1031  159.9716 H   0  0  0  0  0  0  0  0  0  0  0  0  # atno 6908 bound_to 6896
  152.4909  133.8450  159.7227 H   0  0  0  0  0  0  0  0  0  0  0  0  # atno 6909 bound_to 6896
  146.0597  139.5111  142.9666 H   0  0  0  0  0  0  0  0  0  0  0  0  # atno 7974 bound_to 7965
  155.7097  140.0777  157.2376 H   0  0  0  0  0  0  0  0  0  0  0  0  # atno 8008 bound_to 7997
  154.4060  140.1632  156.2336 H   0  0  0  0  0  0  0  0  0  0  0  0  # atno 8009 bound_to 7997
  155.9294  140.3392  155.6239 H   0  0  0  0  0  0  0  0  0  0  0  0  # atno 8010 bound_to 7997
  139.9357  143.6220  152.2517 H   0  0  0  0  0  0  0  0  0  0  0  0  # atno 10167 bound_to 10162
  156.0268  130.4401  150.2791 H   0  0  0  0  0  0  0  0  0  0  0  0  # atno 10718 bound_to 10713
  152.9999  135.6248  154.2314 H   0  0  0  0  0  0  0  0  0  0  0  0  # atno 10763 bound_to 10752
  154.2056  135.2802  155.2978 H   0  0  0  0  0  0  0  0  0  0  0  0  # atno 10764 bound_to 10752
  154.5648  135.5694  153.7099 H   0  0  0  0  0  0  0  0  0  0  0  0  # atno 10765 bound_to 10752
  141.1642  133.7395  156.9004 H   0  0  0  0  0  0  0  0  0  0  0  0  # atno 11005 bound_to 11000
  145.6581  141.0247  143.1724 LP  0  0  0  0  0  0  0  0  0  0  0  0  # atno 17320 bound_to 7965
  144.7168  139.8169  143.7396 LP  0  0  0  0  0  0  0  0  0  0  0  0  # atno 17321 bound_to 7965
  139.6745  144.7659  151.1721 LP  0  0  0  0  0  0  0  0  0  0  0  0  # atno 17342 bound_to 10162
  140.7625  143.5815  150.8890 LP  0  0  0  0  0  0  0  0  0  0  0  0  # atno 17343 bound_to 10162
  157.0895  131.0165  151.3127 LP  0  0  0  0  0  0  0  0  0  0  0  0  # atno 17370 bound_to 10713
  157.4865  130.7796  149.7465 LP  0  0  0  0  0  0  0  0  0  0  0  0  # atno 17371 bound_to 10713
  140.1586  134.9181  157.2686 LP  0  0  0  0  0  0  0  0  0  0  0  0  # atno 17394 bound_to 11000
  140.2638  134.3540  155.7397 LP  0  0  0  0  0  0  0  0  0  0  0  0  # atno 17395 bound_to 11000

$$$$
