AV-unprocessed.smi:1574|AV-procd|sdf|6337|dock2
  -GOLD-   22720 6553D 1   1.00000     0.00000
 Structure written by MMmdl.
 40 41  0  0  0  0  0  0  0  0  1 V2000
  153.4225  141.1081  160.4122 C   0  0  0  0  0  0  0  0  0  0  0  0
  153.0633  142.5790  160.1491 C   0  0  2  0  0  0  0  0  0  0  0  0
  152.4160  143.2403  161.3842 C   0  0  0  0  0  0  0  0  0  0  0  0
  152.0944  144.7211  161.1277 C   0  0  0  0  0  0  0  0  0  0  0  0
  151.2165  144.8926  159.8791 C   0  0  0  0  0  0  0  0  0  0  0  0
  151.8655  144.2381  158.6501 C   0  0  0  0  0  0  0  0  0  0  0  0
  152.1682  142.7443  158.9003 C   0  0  2  0  0  0  0  0  0  0  0  0
  150.9731  142.0073  159.1299 O   0  0  0  0  0  0  0  0  0  0  0  0
  149.9640  142.1435  158.1420 C   0  0  0  0  0  0  0  0  0  0  0  0
  150.4757  141.5330  156.8298 C   0  0  0  0  0  0  0  0  0  0  0  0
  149.3803  141.2592  155.9049 N   0  0  0  0  0  0  0  0  0  0  0  0
  149.4840  140.5434  154.7737 C   0  0  0  0  0  0  0  0  0  0  0  0
  150.5367  140.0440  154.3771 O   0  0  0  0  0  0  0  0  0  0  0  0
  148.2018  140.3543  153.9645 C   0  0  0  0  0  0  0  0  0  0  0  0
  147.0705  140.9681  154.6326 N   0  0  0  0  0  0  0  0  0  0  0  0
  146.7514  142.2506  154.8186 C   0  0  0  0  0  0  0  0  0  0  0  0
  145.6214  142.3792  155.4973 N   0  0  0  0  0  0  0  0  0  0  0  0
  145.2401  141.0676  155.7258 N   0  0  0  0  0  0  0  0  0  0  0  0
  146.0955  140.2258  155.2141 N   0  0  0  0  0  0  0  0  0  0  0  0
  152.5371  140.5157  160.6461 H   0  0  0  0  0  0  0  0  0  0  0  0
  154.1116  141.0178  161.2523 H   0  0  0  0  0  0  0  0  0  0  0  0
  153.9030  140.6598  159.5423 H   0  0  0  0  0  0  0  0  0  0  0  0
  154.0000  143.1023  159.9510 H   0  0  0  0  0  0  0  0  0  0  0  0
  151.5001  142.7114  161.6524 H   0  0  0  0  0  0  0  0  0  0  0  0
  153.0809  143.1563  162.2442 H   0  0  0  0  0  0  0  0  0  0  0  0
  151.5945  145.1486  161.9970 H   0  0  0  0  0  0  0  0  0  0  0  0
  153.0225  145.2797  161.0003 H   0  0  0  0  0  0  0  0  0  0  0  0
  150.2398  144.4416  160.0538 H   0  0  0  0  0  0  0  0  0  0  0  0
  151.0389  145.9517  159.6906 H   0  0  0  0  0  0  0  0  0  0  0  0
  151.2297  144.3724  157.7761 H   0  0  0  0  0  0  0  0  0  0  0  0
  152.7960  144.7579  158.4187 H   0  0  0  0  0  0  0  0  0  0  0  0
  152.6897  142.3280  158.0368 H   0  0  0  0  0  0  0  0  0  0  0  0
  149.0408  141.6497  158.4438 H   0  0  0  0  0  0  0  0  0  0  0  0
  149.7383  143.1999  157.9918 H   0  0  0  0  0  0  0  0  0  0  0  0
  151.1543  142.2340  156.3440 H   0  0  0  0  0  0  0  0  0  0  0  0
  151.0556  140.6299  157.0275 H   0  0  0  0  0  0  0  0  0  0  0  0
  148.4727  141.6254  156.1529 H   0  0  0  0  0  0  0  0  0  0  0  0
  148.3092  140.7784  152.9648 H   0  0  0  0  0  0  0  0  0  0  0  0
  147.9989  139.2898  153.8421 H   0  0  0  0  0  0  0  0  0  0  0  0
  147.3422  143.0814  154.4618 H   0  0  0  0  0  0  0  0  0  0  0  0
  1  2  1  0  0  0  0
  1 20  1  0  0  0  0
  1 21  1  0  0  0  0
  1 22  1  0  0  0  0
  2  7  1  0  0  0  0
  2  3  1  0  0  0  0
  2 23  1  0  0  0  0
  3  4  1  0  0  0  0
  3 24  1  0  0  0  0
  3 25  1  0  0  0  0
  4  5  1  0  0  0  0
  4 26  1  0  0  0  0
  4 27  1  0  0  0  0
  5  6  1  0  0  0  0
  5 28  1  0  0  0  0
  5 29  1  0  0  0  0
  6  7  1  0  0  0  0
  6 30  1  0  0  0  0
  6 31  1  0  0  0  0
  7  8  1  0  0  0  0
  7 32  1  0  0  0  0
  8  9  1  0  0  0  0
  9 10  1  0  0  0  0
  9 33  1  0  0  0  0
  9 34  1  0  0  0  0
 10 11  1  0  0  0  0
 10 35  1  0  0  0  0
 10 36  1  0  0  0  0
 11 12  1  0  0  0  0
 11 37  1  0  0  0  0
 12 13  2  0  0  0  0
 12 14  1  0  0  0  0
 14 15  1  0  0  0  0
 14 38  1  0  0  0  0
 14 39  1  0  0  0  0
 15 19  1  0  0  0  0
 15 16  1  0  0  0  0
 16 17  2  0  0  0  0
 16 40  1  0  0  0  0
 17 18  1  0  0  0  0
 18 19  2  0  0  0  0
M  END
> <s_m_source_file>
AV-unprocessed.smi

> <i_m_source_file_index>
1574

> <i_lp_mmshare_version>
43012

> <i_f3d_flags>
0

> <s_epik_input>
W0NIM11bQ0BASF0xW0NIMl1bQ0gyXVtDSDJdW0NIMl1bQ0BIXTFPW0NIMl1bQ0gyXVtOSF1DKD1PKVtDSDJdbjJbY0hdbm5uMg==

> <s_epik_cmdline>
J2VwaWtfcHl0aG9uJywgJy1waCcsICc3LjAnLCAnLXRuJywgJzgnLCAnLW1hJywgJzIwMCcsICctbWV0YWxfYmluZGluZycsICctaW1hZScsICc8aW5maWxlLm1hZT4nLCAnLW9tYWUnLCAnPG91dGZpbGUubWFlPic=

> <r_lp_tautomer_probability>
1

> <r_epik_Ionization_Penalty>
1.44269e-06

> <r_epik_Ionization_Penalty_Charging>
0

> <r_epik_Ionization_Penalty_Neutral>
1.44269e-06

> <r_epik_State_Penalty>
-0

> <r_epik_Charging_Adjusted_Penalty>
0

> <i_epik_Tot_Q>
0

> <i_epik_Tot_abs_Q>
0

> <r_epik_Metal_State_Penalty>
-0

> <b_epik_Metal_Only>
0

> <s_lp_Force_Field>
OPLS_2005

> <r_lp_Energy>
10.5238

> <b_lp_Chiralities_Consistent>
1

> <s_lp_Variant>
AV-unprocessed.smi:1574-3

> <Gold.Version>
5.8.1

> <Gold.Id.Protein>
6NUR|6NUR_protein|mol2

> <Gold.PLP.Fitness>
46.7494

> <Gold.PLP.PLP>
-41.1749

> <Gold.PLP.part.hbond>
-1.2043

> <Gold.PLP.part.metal>
0.0000

> <Gold.PLP.part.buried>
-5.3283

> <Gold.PLP.part.nonpolar>
-35.4199

> <Gold.PLP.part.repulsive>
0.5420

> <Gold.PLP.ligand.clash>
0.0000

> <Gold.PLP.ligand.torsion>
0.2771

> <Gold.PLP.Chemscore.Hbond>
1.0000

> <Gold.PLP.Chemscore.CHOScore>
1.0000

> <Gold.PLP.Chemscore.Metal>
0.0000

> <Gold.Chemscore.Hbonds>
donor molecule, donor type, donor heavy atom, donor atom, acceptor molecule, acceptor atom, score
      P1  H  7989  7998       L1    13  1.00
      L1  C    16    40       P1  8028  1.00

> <Gold.PLP.Chemscore.Internal.Correction>
0.1286

> <Gold.Rescore>
     Score         DG    S(hbond)    S(metal)    S(lipo)     H(rot)  DE(clash)    DE(int)     intcor
     12.47     -12.93       0.99        0.00      98.97       2.90       0.08       0.37       ----

> <Gold.Chemscore.Fitness>
12.4741

> <Gold.Chemscore.DG>
-12.9285

> <Gold.Chemscore.ZeroCoef>
-5.4800

> <Gold.Chemscore.Hbond>
0.9899

> <Gold.Chemscore.Metal>
0.0000

> <Gold.Chemscore.Lipo>
98.9658

> <Gold.Chemscore.Internal_Hbond>
0.0000

> <Gold.Chemscore.DEClash>
0.0834

> <Gold.Chemscore.DEInternal>
0.3710

> <Gold.Chemscore.Rot>
2.9050

> <Gold.Chemscore.Internal.Correction>
   9.000000E+99

> <Gold.Chemscore.Hbonds>
donor molecule, donor type, donor heavy atom, donor atom, acceptor molecule, acceptor atom, score
      P1  H  7989  7998       L1    13  0.98

> <Gold.Chemscore.Hbond.Weighted>
-3.3061

> <Gold.Chemscore.Metal.Weighted>
-0.0000

> <Gold.Chemscore.Lipo.Weighted>
-11.5790

> <Gold.Chemscore.Internal_Hbond.Weighted>
0.0000

> <Gold.Chemscore.DEClash.Weighted>
0.0834

> <Gold.Chemscore.DEInternal.Weighted>
0.3710

> <Gold.Chemscore.Rot.Weighted>
7.4367

> <Gold.Chemscore.Internal.Correction.Weighted>
   9.000000E+99

> <Gold.Protein.RotatedTorsions>
[ 6907 6896 6895 6894 ] final  -53.95 input  -60.11 | X-H torsion
[ 7974 7965 7964 7962 ] final -147.34 input  175.53 | X-H torsion
[ 8008 7997 7996 7995 ] final  -37.23 input   59.86 | X-H torsion
[ 10167 10162 10161 10158 ] final  -99.04 input  -65.29 | X-H torsion
[ 10718 10713 10712 10709 ] final -147.76 input   66.30 | X-H torsion
[ 10763 10752 10751 10750 ] final  -97.74 input  -60.55 | X-H torsion
[ 11005 11000 10999 10996 ] final -141.60 input  -57.11 | X-H torsion

> <Gold.Protein.ActiveResidues>
 VAL166  LYS551  ARG553  GLY616  TRP617  ASP618  TYR619  PRO620  LYS621  CYS622 
 ASP623  PHE694  ASN695  SER759  ASP760  ASP761  ALA762  ILE779  LEU786  VAL792 
 PHE793  MET794  SER795  GLU796  ALA797  LYS798  CYS799  TRP800  GLU811  SER814 

> <Gold.Protein.RotatedAtoms>
  150.8381  134.7662  159.6909 H   0  0  0  0  0  0  0  0  0  0  0  0  # atno 6907 bound_to 6896
  152.4473  134.5464  159.9864 H   0  0  0  0  0  0  0  0  0  0  0  0  # atno 6908 bound_to 6896
  151.5609  133.3365  159.3007 H   0  0  0  0  0  0  0  0  0  0  0  0  # atno 6909 bound_to 6896
  144.8099  140.5339  143.5649 H   0  0  0  0  0  0  0  0  0  0  0  0  # atno 7974 bound_to 7965
  154.4057  140.1610  156.2503 H   0  0  0  0  0  0  0  0  0  0  0  0  # atno 8008 bound_to 7997
  155.9125  140.3426  155.6087 H   0  0  0  0  0  0  0  0  0  0  0  0  # atno 8009 bound_to 7997
  155.7319  140.0781  157.2276 H   0  0  0  0  0  0  0  0  0  0  0  0  # atno 8010 bound_to 7997
  140.2666  143.3371  152.0574 H   0  0  0  0  0  0  0  0  0  0  0  0  # atno 10167 bound_to 10162
  156.4116  130.7984  151.2202 H   0  0  0  0  0  0  0  0  0  0  0  0  # atno 10718 bound_to 10713
  154.7354  135.5035  153.9033 H   0  0  0  0  0  0  0  0  0  0  0  0  # atno 10763 bound_to 10752
  153.0990  135.6680  153.9717 H   0  0  0  0  0  0  0  0  0  0  0  0  # atno 10764 bound_to 10752
  153.9508  135.3058  155.3418 H   0  0  0  0  0  0  0  0  0  0  0  0  # atno 10765 bound_to 10752
  140.8308  134.2519  157.4857 H   0  0  0  0  0  0  0  0  0  0  0  0  # atno 11005 bound_to 11000
  145.5348  139.1475  143.3480 LP  0  0  0  0  0  0  0  0  0  0  0  0  # atno 17320 bound_to 7965
  146.2396  140.5488  142.8939 LP  0  0  0  0  0  0  0  0  0  0  0  0  # atno 17321 bound_to 7965
  139.5001  144.6684  151.6302 LP  0  0  0  0  0  0  0  0  0  0  0  0  # atno 17342 bound_to 10162
  140.5923  143.9758  150.6332 LP  0  0  0  0  0  0  0  0  0  0  0  0  # atno 17343 bound_to 10162
  157.7507  131.0256  150.3924 LP  0  0  0  0  0  0  0  0  0  0  0  0  # atno 17370 bound_to 10713
  156.4224  130.3955  149.6816 LP  0  0  0  0  0  0  0  0  0  0  0  0  # atno 17371 bound_to 10713
  139.8705  134.9585  156.4302 LP  0  0  0  0  0  0  0  0  0  0  0  0  # atno 17394 bound_to 11000
  140.9000  133.7786  155.9669 LP  0  0  0  0  0  0  0  0  0  0  0  0  # atno 17395 bound_to 11000

$$$$
