#       Name:                AV-unprocessed.smi:1534
#       Creating user name   scv26
#       Creation time:       Fri Mar 27 06:31:39 2020


#       File generated by GOLD software.
#

@<TRIPOS>MOLECULE
AV-unprocessed.smi:1534
    39    40     1
SMALL
NO_CHARGES


@<TRIPOS>ATOM
      1 ****        -0.4787   2.5693   0.4691 O.2            1 S1                 0.0000
      2 ****        -0.8820   1.4188   0.6278 C.2            1 S1                 0.0000
      3 ****        -0.0658   0.3651   0.7981 N.am           1 S1                 0.0000
      4 ****         1.3905   0.4201   0.7632 C.3            1 S1                 0.0000
      5 ****         1.9141   0.4039  -0.6825 C.3            1 S1                 0.0000
      6 ****         3.4289   0.4361  -0.7488 C.ar           1 S1                 0.0000
      7 ****         4.1124   1.6373  -1.0352 C.ar           1 S1                 0.0000
      8 ****         5.5195   1.6128  -1.0857 C.ar           1 S1                 0.0000
      9 ****         6.1856   0.3953  -0.8471 C.ar           1 S1                 0.0000
     10 ****         5.4115  -0.7485  -0.5671 C.ar           1 S1                 0.0000
     11 ****         4.0618  -0.7362  -0.5173 N.ar           1 S1                 0.0000
     12 ****        -2.1939   1.1225   0.6381 N.am           1 S1                 0.0000
     13 ****        -3.3280   2.0342   0.4803 C.3            1 S1                 0.0000
     14 ****        -4.6242   1.2520   0.1967 C.3            1 S1                 0.0000
     15 ****        -5.8225   2.1875   0.3999 C.3            1 S1                 0.0000
     16 ****        -5.3188   3.3906   1.6875 S.o2           1 S1                 0.0000
     17 ****        -5.4189   4.7493   1.1338 O.2            1 S1                 0.0000
     18 ****        -5.9572   3.0442   2.9662 O.2            1 S1                 0.0000
     19 ****        -3.5600   2.8835   1.7419 C.3            1 S1                 0.0000
     20 ****        -0.4838  -0.5440   0.9320 H              1 S1                 0.0000
     21 ****         1.7480   1.3062   1.2906 H              1 S1                 0.0000
     22 ****         1.7736  -0.4428   1.3089 H              1 S1                 0.0000
     23 ****         1.5577  -0.4889  -1.1986 H              1 S1                 0.0000
     24 ****         1.5167   1.2557  -1.2363 H              1 S1                 0.0000
     25 ****         3.5729   2.5562  -1.2125 H              1 S1                 0.0000
     26 ****         6.0774   2.5115  -1.3033 H              1 S1                 0.0000
     27 ****         7.2636   0.3391  -0.8775 H              1 S1                 0.0000
     28 ****         5.8892  -1.6985  -0.3782 H              1 S1                 0.0000
     29 ****        -2.4315   0.1538   0.7965 H              1 S1                 0.0000
     30 ****        -3.1538   2.6992  -0.3678 H              1 S1                 0.0000
     31 ****        -4.6241   0.8153  -0.8025 H              1 S1                 0.0000
     32 ****        -4.7067   0.4254   0.9041 H              1 S1                 0.0000
     33 ****        -6.0384   2.7433  -0.5127 H              1 S1                 0.0000
     34 ****        -6.7256   1.6607   0.7082 H              1 S1                 0.0000
     35 ****        -3.4135   2.2930   2.6471 H              1 S1                 0.0000
     36 ****        -2.9193   3.7642   1.7946 H              1 S1                 0.0000
     37 ****         0.5032   2.7584   0.4622 LP             1 S1                 0.0000
     38 ****        -1.1326   3.3159   0.3468 LP             1 S1                 0.0000
     39 ****         3.5462  -1.5689  -0.3154 LP             1 S1                 0.0000
@<TRIPOS>BOND
    1    1    2 2     
    2    2    3 am    
    3    2   12 am    
    4    3    4 1     
    5    3   20 1     
    6    4    5 1     
    7    4   21 1     
    8    4   22 1     
    9    5    6 1     
   10    5   23 1     
   11    5   24 1     
   12    6   11 ar    
   13    6    7 ar    
   14    7    8 ar    
   15    7   25 1     
   16    8    9 ar    
   17    8   26 1     
   18    9   10 ar    
   19    9   27 1     
   20   10   11 ar    
   21   10   28 1     
   22   12   13 1     
   23   12   29 1     
   24   13   19 1     
   25   13   14 1     
   26   13   30 1     
   27   14   15 1     
   28   14   31 1     
   29   14   32 1     
   30   15   16 1     
   31   15   33 1     
   32   15   34 1     
   33   16   17 2     
   34   16   18 2     
   35   16   19 1     
   36   19   35 1     
   37   19   36 1     
   38    1   37 1     
   39    1   38 1     
   40   11   39 1     
@<TRIPOS>SUBSTRUCTURE
      1 S1             1
@<TRIPOS>SET
LONE_PAIRS      STATIC     ATOMS    <user>   **** ""
5 37 38 39 17 18
DONOR_HYDROGENS      STATIC     ATOMS    <user>   **** ""
2 20 29
ATOM$BLUE        STATIC     ATOMS    COLORGROUP SYSTEM
5 37 38 39 17 18
ATOM$RED        STATIC     ATOMS    COLORGROUP SYSTEM
2 20 29
