#       Name:                AV-unprocessed.smi:39
#       Creating user name   scv26
#       Creation time:       Thu Mar 26 16:20:24 2020


#       File generated by GOLD software.
#

@<TRIPOS>MOLECULE
AV-unprocessed.smi:39
    42    43     1
SMALL
NO_CHARGES


@<TRIPOS>ATOM
      1 ****        -3.8474   1.0654   0.7648 C.3            1 S1                 0.0000
      2 ****        -2.9678  -0.1692   0.6724 C.2            1 S1                 0.0000
      3 ****        -1.6187  -0.0934   0.6530 C.2            1 S1                 0.0000
      4 ****        -0.8197  -1.2213   0.5667 N.am           1 S1                 0.0000
      5 ****         0.6921  -1.1157   0.5424 C.3            1 S1                 0.0000
      6 ****         1.2078  -1.1669  -0.8983 C.3            1 S1                 0.0000
      7 ****         1.2495   0.3051  -1.2476 C.3            1 S1                 0.0000
      8 ****         2.1065   0.5939  -2.4003 N.2            1 S1                 0.0000
      9 ****         2.0223   1.7352  -2.8721 N.1            1 S1                 1.0000
     10 ****         1.9218   2.7309  -3.4140 N.1            1 S1                -1.0000
     11 ****         1.7003   0.9405   0.0823 C.3            1 S1                 0.0000
     12 ****         3.2207   0.9098   0.3534 C.3            1 S1                 0.0000
     13 ****         3.5375   1.8025   1.4001 O.3            1 S1                 0.0000
     14 ****         1.0798   0.1200   1.0755 O.3            1 S1                 0.0000
     15 ****        -1.4252  -2.5025   0.4814 C.2            1 S1                 0.0000
     16 ****        -0.6893  -3.4850   0.3840 O.2            1 S1                 0.0000
     17 ****        -2.7857  -2.5893   0.5043 N.pl3          1 S1                -1.0000
     18 ****        -3.5939  -1.4946   0.5982 C.2            1 S1                 0.0000
     19 ****        -4.8207  -1.5874   0.6210 O.2            1 S1                 0.0000
     20 ****         1.0593  -1.9233   1.1777 H              1 S1                 0.0000
     21 ****         0.2263   0.6245  -1.4568 H              1 S1                 0.0000
     22 ****         1.3291   1.9644   0.1469 H              1 S1                 0.0000
     23 ****        -3.2493   1.9756   0.8174 H              1 S1                 0.0000
     24 ****        -4.4734   1.0212   1.6566 H              1 S1                 0.0000
     25 ****        -4.4957   1.1373  -0.1090 H              1 S1                 0.0000
     26 ****        -1.1602   0.8827   0.7018 H              1 S1                 0.0000
     27 ****         2.2079  -1.6023  -0.8962 H              1 S1                 0.0000
     28 ****         0.5661  -1.7603  -1.5505 H              1 S1                 0.0000
     29 ****         3.5658  -0.0950   0.5984 H              1 S1                 0.0000
     30 ****         3.7866   1.2411  -0.5165 H              1 S1                 0.0000
     31 ****         4.4672   1.7565   1.5630 H              1 S1                 0.0000
     32 ****         2.7245  -0.0922  -2.7842 LP             1 S1                 0.0000
     33 ****         1.8335   3.6058  -3.8902 LP             1 S1                 0.0000
     34 ****         3.0372   1.5443   2.2265 LP             1 S1                 0.0000
     35 ****         3.2871   2.7340   1.1362 LP             1 S1                 0.0000
     36 ****         1.7276  -0.0354   1.8213 LP             1 S1                 0.0000
     37 ****         0.2714   0.5908   1.4288 LP             1 S1                 0.0000
     38 ****         0.3035  -3.3664   0.3669 LP             1 S1                 0.0000
     39 ****        -1.0845  -4.4015   0.3220 LP             1 S1                 0.0000
     40 ****        -3.2088  -3.4937   0.4500 LP             1 S1                 0.0000
     41 ****        -5.3832  -0.7635   0.6896 LP             1 S1                 0.0000
     42 ****        -5.2551  -2.4867   0.5709 LP             1 S1                 0.0000
@<TRIPOS>BOND
    1    1    2 1     
    2    1   23 1     
    3    1   24 1     
    4    1   25 1     
    5    2   18 1     
    6    2    3 2     
    7    3    4 1     
    8    3   26 1     
    9    4    5 1     
   10    4   15 am    
   11    5   20 1     
   12    5   14 1     
   13    5    6 1     
   14    6    7 1     
   15    6   27 1     
   16    6   28 1     
   17    7   21 1     
   18    7    8 1     
   19    7   11 1     
   20    8    9 2     
   21    9   10 2     
   22   11   22 1     
   23   11   12 1     
   24   11   14 1     
   25   12   13 1     
   26   12   29 1     
   27   12   30 1     
   28   13   31 1     
   29   15   16 2     
   30   15   17 1     
   31   17   18 1     
   32   18   19 2     
   33    8   32 1     
   34   10   33 1     
   35   13   34 1     
   36   13   35 1     
   37   14   36 1     
   38   14   37 1     
   39   16   38 1     
   40   16   39 1     
   41   17   40 1     
   42   19   41 1     
   43   19   42 1     
@<TRIPOS>SUBSTRUCTURE
      1 S1             1
@<TRIPOS>SET
LONE_PAIRS      STATIC     ATOMS    <user>   **** ""
11 32 33 34 35 36 37 38 39 40 41 42
DONOR_HYDROGENS      STATIC     ATOMS    <user>   **** ""
1 31
ATOM$BLUE        STATIC     ATOMS    COLORGROUP SYSTEM
11 32 33 34 35 36 37 38 39 40 41 42
ATOM$RED        STATIC     ATOMS    COLORGROUP SYSTEM
1 31
