AV-unprocessed.smi:1487|AV-procd|sdf|6019|dock1
  -GOLD-   22720 6123D 1   1.00000     0.00000
 Structure written by MMmdl.
 49 51  0  0  0  0  0  0  0  0  3 V2000
  152.8503  143.2088  160.6016 C   0  0  0  0  0  0  0  0  0  0  0  0
  152.4459  142.4325  159.3598 C   0  0  0  0  0  0  0  0  0  0  0  0
  151.5657  143.0441  158.4389 C   0  0  0  0  0  0  0  0  0  0  0  0
  151.2150  142.3094  157.3128 C   0  0  0  0  0  0  0  0  0  0  0  0
  150.3811  142.6262  156.2386 N   0  3  0  0  0  0  0  0  0  0  0  0
  150.3429  141.5799  155.3681 C   0  0  0  0  0  0  0  0  0  0  0  0
  151.1398  140.5977  155.8706 N   0  0  0  0  0  0  0  0  0  0  0  0
  151.4505  139.2697  155.3205 C   0  0  0  0  0  0  0  0  0  0  0  0
  150.1966  138.5051  154.8529 C   0  0  2  0  0  0  0  0  0  0  0  0
  150.5653  137.2112  154.4169 O   0  0  0  0  0  0  0  0  0  0  0  0
  149.4883  139.2301  153.6914 C   0  0  0  0  0  0  0  0  0  0  0  0
  148.2925  138.4940  153.2072 N   0  3  1  0  0  0  0  0  0  0  0  0
  147.4748  137.9131  154.3049 C   0  0  0  0  0  0  0  0  0  0  0  0
  146.3535  137.0239  153.7454 C   0  0  0  0  0  0  0  0  0  0  0  0
  145.4642  137.8086  152.7705 C   0  0  0  0  0  0  0  0  0  0  0  0
  146.3077  138.4831  151.6757 C   0  0  2  0  0  0  0  0  0  0  0  0
  146.8239  137.5161  150.7824 O   0  0  0  0  0  0  0  0  0  0  0  0
  147.4671  139.3048  152.2733 C   0  0  0  0  0  0  0  0  0  0  0  0
  151.7067  141.0093  157.0837 C   0  0  0  0  0  0  0  0  0  0  0  0
  152.5737  140.3917  157.9825 C   0  0  0  0  0  0  0  0  0  0  0  0
  152.9439  141.1233  159.1337 C   0  0  0  0  0  0  0  0  0  0  0  0
  153.8894  140.4746  160.1305 C   0  0  0  0  0  0  0  0  0  0  0  0
  152.3387  144.1702  160.6557 H   0  0  0  0  0  0  0  0  0  0  0  0
  153.9234  143.4011  160.5985 H   0  0  0  0  0  0  0  0  0  0  0  0
  152.6006  142.6493  161.5034 H   0  0  0  0  0  0  0  0  0  0  0  0
  151.1824  144.0407  158.6041 H   0  0  0  0  0  0  0  0  0  0  0  0
  149.7823  141.5388  154.4451 H   0  0  0  0  0  0  0  0  0  0  0  0
  152.1237  139.4248  154.4763 H   0  0  0  0  0  0  0  0  0  0  0  0
  152.0153  138.6964  156.0561 H   0  0  0  0  0  0  0  0  0  0  0  0
  149.5234  138.3957  155.7025 H   0  0  0  0  0  0  0  0  0  0  0  0
  150.0305  136.9812  153.6720 H   0  0  0  0  0  0  0  0  0  0  0  0
  149.1931  140.2375  153.9887 H   0  0  0  0  0  0  0  0  0  0  0  0
  150.2045  139.3544  152.8773 H   0  0  0  0  0  0  0  0  0  0  0  0
  148.0982  137.3167  154.9702 H   0  0  0  0  0  0  0  0  0  0  0  0
  147.0503  138.7163  154.9093 H   0  0  0  0  0  0  0  0  0  0  0  0
  146.7876  136.1610  153.2387 H   0  0  0  0  0  0  0  0  0  0  0  0
  145.7489  136.6286  154.5620 H   0  0  0  0  0  0  0  0  0  0  0  0
  144.7110  137.1547  152.3292 H   0  0  0  0  0  0  0  0  0  0  0  0
  144.9188  138.5744  153.3239 H   0  0  0  0  0  0  0  0  0  0  0  0
  145.6686  139.1445  151.0899 H   0  0  0  0  0  0  0  0  0  0  0  0
  147.2171  136.8189  151.2860 H   0  0  0  0  0  0  0  0  0  0  0  0
  147.0696  140.1676  152.8100 H   0  0  0  0  0  0  0  0  0  0  0  0
  148.0887  139.6967  151.4668 H   0  0  0  0  0  0  0  0  0  0  0  0
  152.9503  139.3932  157.8173 H   0  0  0  0  0  0  0  0  0  0  0  0
  154.2221  139.4948  159.7863 H   0  0  0  0  0  0  0  0  0  0  0  0
  153.3954  140.3401  161.0930 H   0  0  0  0  0  0  0  0  0  0  0  0
  154.7756  141.0922  160.2784 H   0  0  0  0  0  0  0  0  0  0  0  0
  148.6433  137.7212  152.6587 H   0  0  0  0  0  0  0  0  0  0  0  0
  149.8759  143.4934  156.1064 H   0  0  0  0  0  0  0  0  0  0  0  0
  1  2  1  0  0  0  0
  1 23  1  0  0  0  0
  1 24  1  0  0  0  0
  1 25  1  0  0  0  0
  2 21  1  0  0  0  0
  2  3  2  0  0  0  0
  3  4  1  0  0  0  0
  3 26  1  0  0  0  0
  4 19  2  0  0  0  0
  4  5  1  0  0  0  0
  5  6  2  0  0  0  0
  5 49  1  0  0  0  0
  6  7  1  0  0  0  0
  6 27  1  0  0  0  0
  7  8  1  0  0  0  0
  7 19  1  0  0  0  0
  8  9  1  0  0  0  0
  8 28  1  0  0  0  0
  8 29  1  0  0  0  0
  9 10  1  0  0  0  0
  9 11  1  0  0  0  0
  9 30  1  0  0  0  0
 10 31  1  0  0  0  0
 11 12  1  0  0  0  0
 11 32  1  0  0  0  0
 11 33  1  0  0  0  0
 12 18  1  0  0  0  0
 12 13  1  0  0  0  0
 12 48  1  0  0  0  0
 13 14  1  0  0  0  0
 13 34  1  0  0  0  0
 13 35  1  0  0  0  0
 14 15  1  0  0  0  0
 14 36  1  0  0  0  0
 14 37  1  0  0  0  0
 15 16  1  0  0  0  0
 15 38  1  0  0  0  0
 15 39  1  0  0  0  0
 16 17  1  0  0  0  0
 16 18  1  0  0  0  0
 16 40  1  0  0  0  0
 17 41  1  0  0  0  0
 18 42  1  0  0  0  0
 18 43  1  0  0  0  0
 19 20  1  0  0  0  0
 20 21  2  0  0  0  0
 20 44  1  0  0  0  0
 21 22  1  0  0  0  0
 22 45  1  0  0  0  0
 22 46  1  0  0  0  0
 22 47  1  0  0  0  0
M  CHG  1   5   1
M  CHG  1  12   1
M  END
> <s_m_source_file>
AV-unprocessed.smi

> <i_m_source_file_index>
1487

> <i_lp_mmshare_version>
43012

> <i_f3d_flags>
0

> <s_epik_input>
W0NIM11jKFtjSF0xKWMoW0NIM10pW2NIXWMoYzEyKW4oW2NIXW4yKVtDSDJdW0NASF0oW09IXSlbQ0gyXU4zW0NIMl1bQ0gyXVtDSDJdW0NAQEhdKFtPSF0pW0NIMl0z

> <s_epik_cmdline>
J2VwaWtfcHl0aG9uJywgJy1waCcsICc3LjAnLCAnLXRuJywgJzgnLCAnLW1hJywgJzIwMCcsICctbWV0YWxfYmluZGluZycsICctaW1hZScsICc8aW5maWxlLm1hZT4nLCAnLW9tYWUnLCAnPG91dGZpbGUubWFlPic=

> <r_epik_Ionization_Penalty>
1.1857

> <r_epik_Ionization_Penalty_Charging>
1.1857

> <r_epik_Ionization_Penalty_Neutral>
1.75578e-06

> <r_epik_State_Penalty>
1.26953

> <r_epik_Charging_Adjusted_Penalty>
2.45524

> <i_epik_Tot_Q>
2

> <i_epik_Tot_abs_Q>
2

> <r_epik_Metal_State_Penalty>
5.28243

> <b_epik_Metal_Only>
0

> <s_lp_Force_Field>
OPLS_2005

> <r_lp_Energy>
30.6325

> <b_lp_Chiralities_Consistent>
1

> <s_lp_Variant>
AV-unprocessed.smi:1487-13

> <Gold.Version>
5.8.1

> <Gold.Id.Protein>
6NUR|6NUR_protein|mol2

> <Gold.PLP.Fitness>
60.1156

> <Gold.PLP.PLP>
-42.2557

> <Gold.PLP.part.hbond>
-6.0704

> <Gold.PLP.part.metal>
0.0000

> <Gold.PLP.part.buried>
2.8389

> <Gold.PLP.part.nonpolar>
-39.7832

> <Gold.PLP.part.repulsive>
0.1113

> <Gold.PLP.ligand.clash>
0.0000

> <Gold.PLP.ligand.torsion>
0.2639

> <Gold.PLP.Chemscore.Hbond>
6.1188

> <Gold.PLP.Chemscore.CHOScore>
0.0000

> <Gold.PLP.Chemscore.Metal>
0.0000

> <Gold.Chemscore.Hbonds>
donor molecule, donor type, donor heavy atom, donor atom, acceptor molecule, acceptor atom, score
      L1  H     5    49       P1  8028  2.00
      L1  H    10    31       P1  7948  0.59
      L1  H    12    48       P1  7948  2.00
      L1  H    17    41       P1  7948  0.77
      P1  H  7954  7966       L1    17  0.80

> <Gold.PLP.Chemscore.Internal.Correction>
0.0315

> <Gold.Rescore>
     Score         DG    S(hbond)    S(metal)    S(lipo)     H(rot)  DE(clash)    DE(int)     intcor
     20.23     -23.12       3.29        0.00     116.90       2.74       1.47       1.42       ----

> <Gold.Chemscore.Fitness>
20.2306

> <Gold.Chemscore.DG>
-23.1228

> <Gold.Chemscore.ZeroCoef>
-5.4800

> <Gold.Chemscore.Hbond>
3.2862

> <Gold.Chemscore.Metal>
0.0000

> <Gold.Chemscore.Lipo>
116.8990

> <Gold.Chemscore.Internal_Hbond>
0.0000

> <Gold.Chemscore.DEClash>
1.4676

> <Gold.Chemscore.DEInternal>
1.4246

> <Gold.Chemscore.Rot>
2.7384

> <Gold.Chemscore.Internal.Correction>
   9.000000E+99

> <Gold.Chemscore.Hbonds>
donor molecule, donor type, donor heavy atom, donor atom, acceptor molecule, acceptor atom, score
      L1  H     5    49       P1  8028  1.00
      L1  H    10    31       P1  7948  0.18
      L1  H    12    48       P1  7948  1.00
      L1  H    17    41       P1  7948  0.78
      P1  H  7954  7966       L1    17  0.11

> <Gold.Chemscore.Hbond.Weighted>
-10.9760

> <Gold.Chemscore.Metal.Weighted>
-0.0000

> <Gold.Chemscore.Lipo.Weighted>
-13.6772

> <Gold.Chemscore.Internal_Hbond.Weighted>
0.0000

> <Gold.Chemscore.DEClash.Weighted>
1.4676

> <Gold.Chemscore.DEInternal.Weighted>
1.4246

> <Gold.Chemscore.Rot.Weighted>
7.0103

> <Gold.Chemscore.Internal.Correction.Weighted>
   9.000000E+99

> <Gold.Protein.RotatedTorsions>
[ 6907 6896 6895 6894 ] final -108.24 input  -60.11 | X-H torsion
[ 7974 7965 7964 7962 ] final -107.12 input  175.53 | X-H torsion
[ 8008 7997 7996 7995 ] final  -12.47 input   59.86 | X-H torsion
[ 10167 10162 10161 10158 ] final -122.04 input  -65.29 | X-H torsion
[ 10718 10713 10712 10709 ] final   95.19 input   66.30 | X-H torsion
[ 10763 10752 10751 10750 ] final   89.48 input  -60.55 | X-H torsion
[ 11005 11000 10999 10996 ] final -122.58 input  -57.11 | X-H torsion

> <Gold.Protein.ActiveResidues>
 VAL166  LYS551  ARG553  GLY616  TRP617  ASP618  TYR619  PRO620  LYS621  CYS622 
 ASP623  PHE694  ASN695  SER759  ASP760  ASP761  ALA762  ILE779  LEU786  VAL792 
 PHE793  MET794  SER795  GLU796  ALA797  LYS798  CYS799  TRP800  GLU811  SER814 

> <Gold.Protein.RotatedAtoms>
  150.7490  133.9708  159.3544 H   0  0  0  0  0  0  0  0  0  0  0  0  # atno 6907 bound_to 6896
  151.7641  135.0801  160.0359 H   0  0  0  0  0  0  0  0  0  0  0  0  # atno 6908 bound_to 6896
  152.3383  133.6000  159.5894 H   0  0  0  0  0  0  0  0  0  0  0  0  # atno 6909 bound_to 6896
  145.2092  140.9089  143.3324 H   0  0  0  0  0  0  0  0  0  0  0  0  # atno 7974 bound_to 7965
  154.5374  140.2275  155.8699 H   0  0  0  0  0  0  0  0  0  0  0  0  # atno 8008 bound_to 7997
  156.1825  140.3096  155.9139 H   0  0  0  0  0  0  0  0  0  0  0  0  # atno 8009 bound_to 7997
  155.3326  140.0446  157.3033 H   0  0  0  0  0  0  0  0  0  0  0  0  # atno 8010 bound_to 7997
  140.0186  143.5368  152.2231 H   0  0  0  0  0  0  0  0  0  0  0  0  # atno 10167 bound_to 10162
  157.6941  131.0537  150.4302 H   0  0  0  0  0  0  0  0  0  0  0  0  # atno 10718 bound_to 10713
  153.1875  135.4469  155.0107 H   0  0  0  0  0  0  0  0  0  0  0  0  # atno 10763 bound_to 10752
  154.8069  135.3278  154.7409 H   0  0  0  0  0  0  0  0  0  0  0  0  # atno 10764 bound_to 10752
  153.7866  135.6973  153.4934 H   0  0  0  0  0  0  0  0  0  0  0  0  # atno 10765 bound_to 10752
  140.9984  134.0438  157.3568 H   0  0  0  0  0  0  0  0  0  0  0  0  # atno 11005 bound_to 11000
  144.9872  139.3725  143.6233 LP  0  0  0  0  0  0  0  0  0  0  0  0  # atno 17320 bound_to 7965
  146.3401  139.9039  142.8790 LP  0  0  0  0  0  0  0  0  0  0  0  0  # atno 17321 bound_to 7965
  139.6156  144.7618  151.2855 LP  0  0  0  0  0  0  0  0  0  0  0  0  # atno 17342 bound_to 10162
  140.7352  143.6744  150.8054 LP  0  0  0  0  0  0  0  0  0  0  0  0  # atno 17343 bound_to 10162
  156.4669  130.4044  149.6542 LP  0  0  0  0  0  0  0  0  0  0  0  0  # atno 17370 bound_to 10713
  156.3636  130.7494  151.2469 LP  0  0  0  0  0  0  0  0  0  0  0  0  # atno 17371 bound_to 10713
  139.9026  135.0170  156.7341 LP  0  0  0  0  0  0  0  0  0  0  0  0  # atno 17394 bound_to 11000
  140.6928  133.9375  155.7977 LP  0  0  0  0  0  0  0  0  0  0  0  0  # atno 17395 bound_to 11000

$$$$
