AV-unprocessed.smi:1250|AV-procd|sdf|5255|dock8
  -GOLD-   22720 4363D 1   1.00000     0.00000
 Structure written by MMmdl.
 41 42  0  0  0  0  0  0  0  0  1 V2000
  149.9364  137.5859  158.7113 C   0  0  0  0  0  0  0  0  0  0  0  0
  148.7954  137.2059  157.7470 C   0  0  0  0  0  0  0  0  0  0  0  0
  147.9342  136.1001  158.3843 C   0  0  0  0  0  0  0  0  0  0  0  0
  149.3198  136.8081  156.3416 C   0  0  1  0  0  0  0  0  0  0  0  0
  148.1938  136.5206  155.3303 C   0  0  0  0  0  0  0  0  0  0  0  0
  150.1758  137.8639  155.8016 N   0  0  0  0  0  0  0  0  0  0  0  0
  151.4637  137.7219  155.4494 C   0  0  0  0  0  0  0  0  0  0  0  0
  152.0834  136.6630  155.5476 O   0  0  0  0  0  0  0  0  0  0  0  0
  152.1613  138.9654  154.8966 C   0  0  0  0  0  0  0  0  0  0  0  0
  151.9622  140.1300  155.8235 C   0  0  0  0  0  0  0  0  0  0  0  0
  151.2090  141.2543  155.5851 C   0  0  0  0  0  0  0  0  0  0  0  0
  151.2488  142.3651  156.9258 S   0  0  0  0  0  0  0  0  0  0  0  0
  152.3162  141.2452  157.7781 C   0  0  0  0  0  0  0  0  0  0  0  0
  152.8789  141.4371  159.0753 N   0  0  0  0  0  0  0  0  0  0  0  0
  152.5779  142.6190  159.8774 C   0  0  0  0  0  0  0  0  0  0  0  0
  153.1640  142.3452  161.2665 C   0  0  0  0  0  0  0  0  0  0  0  0
  154.1131  141.1634  161.0788 C   0  0  0  0  0  0  0  0  0  0  0  0
  153.7389  140.6204  159.7095 C   0  0  0  0  0  0  0  0  0  0  0  0
  154.2064  139.5631  159.2886 O   0  0  0  0  0  0  0  0  0  0  0  0
  152.5891  140.1409  157.0745 N   0  0  0  0  0  0  0  0  0  0  0  0
  150.6423  136.7634  158.8303 H   0  0  0  0  0  0  0  0  0  0  0  0
  149.5490  137.8347  159.6996 H   0  0  0  0  0  0  0  0  0  0  0  0
  150.4935  138.4554  158.3623 H   0  0  0  0  0  0  0  0  0  0  0  0
  148.1620  138.0872  157.6355 H   0  0  0  0  0  0  0  0  0  0  0  0
  148.4863  135.1630  158.4607 H   0  0  0  0  0  0  0  0  0  0  0  0
  147.0272  135.9104  157.8114 H   0  0  0  0  0  0  0  0  0  0  0  0
  147.6173  136.3793  159.3896 H   0  0  0  0  0  0  0  0  0  0  0  0
  149.9141  135.8993  156.4551 H   0  0  0  0  0  0  0  0  0  0  0  0
  147.5938  135.6605  155.6254 H   0  0  0  0  0  0  0  0  0  0  0  0
  148.5994  136.2959  154.3432 H   0  0  0  0  0  0  0  0  0  0  0  0
  147.5263  137.3765  155.2255 H   0  0  0  0  0  0  0  0  0  0  0  0
  149.7527  138.7731  155.6825 H   0  0  0  0  0  0  0  0  0  0  0  0
  153.2213  138.7503  154.7537 H   0  0  0  0  0  0  0  0  0  0  0  0
  151.7591  139.1931  153.9087 H   0  0  0  0  0  0  0  0  0  0  0  0
  150.6307  141.4920  154.7044 H   0  0  0  0  0  0  0  0  0  0  0  0
  153.0511  143.4909  159.4230 H   0  0  0  0  0  0  0  0  0  0  0  0
  151.5044  142.8048  159.9325 H   0  0  0  0  0  0  0  0  0  0  0  0
  153.6722  143.2205  161.6723 H   0  0  0  0  0  0  0  0  0  0  0  0
  152.3691  142.0741  161.9626 H   0  0  0  0  0  0  0  0  0  0  0  0
  155.1542  141.4869  161.0672 H   0  0  0  0  0  0  0  0  0  0  0  0
  153.9892  140.4081  161.8558 H   0  0  0  0  0  0  0  0  0  0  0  0
  1  2  1  0  0  0  0
  1 21  1  0  0  0  0
  1 22  1  0  0  0  0
  1 23  1  0  0  0  0
  2  3  1  0  0  0  0
  2  4  1  0  0  0  0
  2 24  1  0  0  0  0
  3 25  1  0  0  0  0
  3 26  1  0  0  0  0
  3 27  1  0  0  0  0
  4  5  1  0  0  0  0
  4  6  1  0  0  0  0
  4 28  1  0  0  0  0
  5 29  1  0  0  0  0
  5 30  1  0  0  0  0
  5 31  1  0  0  0  0
  6  7  1  0  0  0  0
  6 32  1  0  0  0  0
  7  8  2  0  0  0  0
  7  9  1  0  0  0  0
  9 10  1  0  0  0  0
  9 33  1  0  0  0  0
  9 34  1  0  0  0  0
 10 20  1  0  0  0  0
 10 11  2  0  0  0  0
 11 12  1  0  0  0  0
 11 35  1  0  0  0  0
 12 13  1  0  0  0  0
 13 14  1  0  0  0  0
 13 20  2  0  0  0  0
 14 18  1  0  0  0  0
 14 15  1  0  0  0  0
 15 16  1  0  0  0  0
 15 36  1  0  0  0  0
 15 37  1  0  0  0  0
 16 17  1  0  0  0  0
 16 38  1  0  0  0  0
 16 39  1  0  0  0  0
 17 18  1  0  0  0  0
 17 40  1  0  0  0  0
 17 41  1  0  0  0  0
 18 19  2  0  0  0  0
M  END
> <s_m_source_file>
AV-unprocessed.smi

> <i_m_source_file_index>
1250

> <i_lp_mmshare_version>
43012

> <i_f3d_flags>
0

> <s_epik_input>
W0NIM11bQ0hdKFtDSDNdKVtDQEhdKFtDSDNdKVtOSF1DKD1PKVtDSDJdYzFbY0hdc2MobjEpTjJbQ0gyXVtDSDJdW0NIMl1DMj1P

> <s_epik_cmdline>
J2VwaWtfcHl0aG9uJywgJy1waCcsICc3LjAnLCAnLXRuJywgJzgnLCAnLW1hJywgJzIwMCcsICctbWV0YWxfYmluZGluZycsICctaW1hZScsICc8aW5maWxlLm1hZT4nLCAnLW9tYWUnLCAnPG91dGZpbGUubWFlPic=

> <r_lp_tautomer_probability>
1

> <r_epik_Ionization_Penalty>
3.03552e-05

> <r_epik_Ionization_Penalty_Charging>
0

> <r_epik_Ionization_Penalty_Neutral>
3.03552e-05

> <r_epik_State_Penalty>
-0

> <r_epik_Charging_Adjusted_Penalty>
0

> <i_epik_Tot_Q>
0

> <i_epik_Tot_abs_Q>
0

> <r_epik_Metal_State_Penalty>
-0

> <b_epik_Metal_Only>
0

> <s_lp_Force_Field>
OPLS_2005

> <r_lp_Energy>
19.4329

> <b_lp_Chiralities_Consistent>
1

> <s_lp_Variant>
AV-unprocessed.smi:1250-2

> <Gold.Version>
5.8.1

> <Gold.Id.Protein>
6NUR|6NUR_protein|mol2

> <Gold.PLP.Fitness>
43.5663

> <Gold.PLP.PLP>
-37.9293

> <Gold.PLP.part.hbond>
-3.0000

> <Gold.PLP.part.metal>
0.0000

> <Gold.PLP.part.buried>
-3.9393

> <Gold.PLP.part.nonpolar>
-31.2052

> <Gold.PLP.part.repulsive>
0.0549

> <Gold.PLP.ligand.clash>
0.0000

> <Gold.PLP.ligand.torsion>
0.1868

> <Gold.PLP.Chemscore.Hbond>
1.9920

> <Gold.PLP.Chemscore.CHOScore>
0.0000

> <Gold.PLP.Chemscore.Metal>
0.0000

> <Gold.Chemscore.Hbonds>
donor molecule, donor type, donor heavy atom, donor atom, acceptor molecule, acceptor atom, score
      P1  H  7997  8009       L1    19  0.50
      P1  H  7997  8010       L1    20  0.01
      P1  H 10752 10764       L1     8  1.00

> <Gold.PLP.Chemscore.Internal.Correction>
0.0346

> <Gold.Rescore>
     Score         DG    S(hbond)    S(metal)    S(lipo)     H(rot)  DE(clash)    DE(int)     intcor
     15.02     -16.65       1.87        0.00      76.68       1.58       0.00       1.63       ----

> <Gold.Chemscore.Fitness>
15.0207

> <Gold.Chemscore.DG>
-16.6506

> <Gold.Chemscore.ZeroCoef>
-5.4800

> <Gold.Chemscore.Hbond>
1.8675

> <Gold.Chemscore.Metal>
0.0000

> <Gold.Chemscore.Lipo>
76.6800

> <Gold.Chemscore.Internal_Hbond>
0.0000

> <Gold.Chemscore.DEClash>
0.0038

> <Gold.Chemscore.DEInternal>
1.6261

> <Gold.Chemscore.Rot>
1.5775

> <Gold.Chemscore.Internal.Correction>
   9.000000E+99

> <Gold.Chemscore.Hbonds>
donor molecule, donor type, donor heavy atom, donor atom, acceptor molecule, acceptor atom, score
      P1  H  7997  8009       L1    19  0.29
      P1  H 10752 10764       L1     8  0.96

> <Gold.Chemscore.Hbond.Weighted>
-6.2376

> <Gold.Chemscore.Metal.Weighted>
-0.0000

> <Gold.Chemscore.Lipo.Weighted>
-8.9716

> <Gold.Chemscore.Internal_Hbond.Weighted>
0.0000

> <Gold.Chemscore.DEClash.Weighted>
0.0038

> <Gold.Chemscore.DEInternal.Weighted>
1.6261

> <Gold.Chemscore.Rot.Weighted>
4.0385

> <Gold.Chemscore.Internal.Correction.Weighted>
   9.000000E+99

> <Gold.Protein.RotatedTorsions>
[ 6907 6896 6895 6894 ] final   33.91 input  -60.11 | X-H torsion
[ 7974 7965 7964 7962 ] final  116.77 input  175.53 | X-H torsion
[ 8008 7997 7996 7995 ] final  112.56 input   59.86 | X-H torsion
[ 10167 10162 10161 10158 ] final   46.90 input  -65.29 | X-H torsion
[ 10718 10713 10712 10709 ] final  134.14 input   66.30 | X-H torsion
[ 10763 10752 10751 10750 ] final  -53.35 input  -60.55 | X-H torsion
[ 11005 11000 10999 10996 ] final  -95.47 input  -57.11 | X-H torsion

> <Gold.Protein.ActiveResidues>
 VAL166  LYS551  ARG553  GLY616  TRP617  ASP618  TYR619  PRO620  LYS621  CYS622 
 ASP623  PHE694  ASN695  SER759  ASP760  ASP761  ALA762  ILE779  LEU786  VAL792 
 PHE793  MET794  SER795  GLU796  ALA797  LYS798  CYS799  TRP800  GLU811  SER814 

> <Gold.Protein.RotatedAtoms>
  152.0951  134.9380  160.0570 H   0  0  0  0  0  0  0  0  0  0  0  0  # atno 6907 bound_to 6896
  152.0617  133.4060  159.4429 H   0  0  0  0  0  0  0  0  0  0  0  0  # atno 6908 bound_to 6896
  150.6838  134.3113  159.4791 H   0  0  0  0  0  0  0  0  0  0  0  0  # atno 6909 bound_to 6896
  145.1755  139.3078  143.4445 H   0  0  0  0  0  0  0  0  0  0  0  0  # atno 7974 bound_to 7965
  156.2200  140.2997  155.9930 H   0  0  0  0  0  0  0  0  0  0  0  0  # atno 8008 bound_to 7997
  155.2506  140.0426  157.3003 H   0  0  0  0  0  0  0  0  0  0  0  0  # atno 8009 bound_to 7997
  154.5826  140.2379  155.8040 H   0  0  0  0  0  0  0  0  0  0  0  0  # atno 8010 bound_to 7997
  140.3092  144.2841  150.6203 H   0  0  0  0  0  0  0  0  0  0  0  0  # atno 10167 bound_to 10162
  157.4703  131.1079  150.9811 H   0  0  0  0  0  0  0  0  0  0  0  0  # atno 10718 bound_to 10713
  154.1574  135.6480  153.4977 H   0  0  0  0  0  0  0  0  0  0  0  0  # atno 10763 bound_to 10752
  153.0120  135.5352  154.6746 H   0  0  0  0  0  0  0  0  0  0  0  0  # atno 10764 bound_to 10752
  154.6050  135.2948  155.0466 H   0  0  0  0  0  0  0  0  0  0  0  0  # atno 10765 bound_to 10752
  141.1441  133.8028  157.0439 H   0  0  0  0  0  0  0  0  0  0  0  0  # atno 11005 bound_to 11000
  146.3462  140.1916  142.8589 LP  0  0  0  0  0  0  0  0  0  0  0  0  # atno 17320 bound_to 7965
  145.0189  140.8777  143.5179 LP  0  0  0  0  0  0  0  0  0  0  0  0  # atno 17321 bound_to 7965
  140.5583  143.2196  151.7809 LP  0  0  0  0  0  0  0  0  0  0  0  0  # atno 17342 bound_to 10162
  139.4897  144.4383  151.9793 LP  0  0  0  0  0  0  0  0  0  0  0  0  # atno 17343 bound_to 10162
  157.0578  130.5813  149.5381 LP  0  0  0  0  0  0  0  0  0  0  0  0  # atno 17370 bound_to 10713
  156.0070  130.5158  150.7863 LP  0  0  0  0  0  0  0  0  0  0  0  0  # atno 17371 bound_to 10713
  140.0675  134.9721  157.1411 LP  0  0  0  0  0  0  0  0  0  0  0  0  # atno 17394 bound_to 11000
  140.3759  134.2340  155.7174 LP  0  0  0  0  0  0  0  0  0  0  0  0  # atno 17395 bound_to 11000

$$$$
