AV-unprocessed.smi:697|AV-procd|sdf|3393|dock1
  -GOLD-   22720 0373D 1   1.00000     0.00000
 Structure written by MMmdl.
 43 44  0  0  0  0  0  0  0  0  2 V2000
  145.9517  131.8058  149.1496 C   0  0  0  0  0  0  0  0  0  0  0  0
  145.5772  133.0001  149.8240 O   0  0  0  0  0  0  0  0  0  0  0  0
  145.4570  132.9136  151.2448 C   0  0  1  0  0  0  0  0  0  0  0  0
  144.4009  131.8616  151.6184 C   0  0  0  0  0  0  0  0  0  0  0  0
  146.8273  132.8394  151.9437 C   0  0  0  0  0  0  0  0  0  0  0  0
  146.2691  133.8438  152.9489 C   0  0  1  0  0  0  0  0  0  0  0  0
  147.2699  134.8046  153.3992 N   0  0  0  0  0  0  0  0  0  0  0  0
  147.5777  135.0319  154.6828 C   0  0  0  0  0  0  0  0  0  0  0  0
  147.0429  134.4360  155.6176 O   0  0  0  0  0  0  0  0  0  0  0  0
  148.5368  135.9697  154.7840 N   0  0  0  0  0  0  0  0  0  0  0  0
  149.1344  136.5195  155.9312 C   0  0  0  0  0  0  0  0  0  0  0  0
  149.4337  137.8377  156.0991 C   0  0  0  0  0  0  0  0  0  0  0  0
  150.0639  138.3467  157.3107 C   0  0  0  0  0  0  0  0  0  0  0  0
  150.3213  139.8199  157.5730 C   0  0  0  0  0  0  0  0  0  0  0  0
  150.9443  139.9975  158.7382 F   0  0  0  0  0  0  0  0  0  0  0  0
  151.0910  140.3245  156.6098 F   0  0  0  0  0  0  0  0  0  0  0  0
  149.1802  140.5085  157.5970 F   0  0  0  0  0  0  0  0  0  0  0  0
  150.2996  137.3500  158.2374 C   0  0  0  0  0  0  0  0  0  0  0  0
  150.0609  136.0238  158.1398 N   0  5  0  0  0  0  0  0  0  0  0  0
  149.4739  135.5582  157.0011 C   0  0  0  0  0  0  0  0  0  0  0  0
  149.2249  134.3617  156.8481 O   0  0  0  0  0  0  0  0  0  0  0  0
  145.3264  134.3575  151.8304 C   0  0  0  0  0  0  0  0  0  0  0  0
  145.8586  135.5015  150.9432 C   0  0  0  0  0  0  0  0  0  0  0  0
  143.9309  134.7967  152.2846 C   0  0  0  0  0  0  0  0  0  0  0  0
  146.0935  132.0241  148.0914 H   0  0  0  0  0  0  0  0  0  0  0  0
  145.1808  131.0393  149.2203 H   0  0  0  0  0  0  0  0  0  0  0  0
  146.8887  131.3985  149.5296 H   0  0  0  0  0  0  0  0  0  0  0  0
  144.1845  131.8641  152.6864 H   0  0  0  0  0  0  0  0  0  0  0  0
  144.7295  130.8513  151.3765 H   0  0  0  0  0  0  0  0  0  0  0  0
  143.4614  132.0400  151.0949 H   0  0  0  0  0  0  0  0  0  0  0  0
  147.0730  131.8661  152.3691 H   0  0  0  0  0  0  0  0  0  0  0  0
  147.6496  133.2314  151.3420 H   0  0  0  0  0  0  0  0  0  0  0  0
  145.7366  133.3473  153.7634 H   0  0  0  0  0  0  0  0  0  0  0  0
  147.7566  135.3311  152.6885 H   0  0  0  0  0  0  0  0  0  0  0  0
  148.9153  136.3181  153.9153 H   0  0  0  0  0  0  0  0  0  0  0  0
  149.2281  138.5563  155.3234 H   0  0  0  0  0  0  0  0  0  0  0  0
  150.7443  137.6670  159.2049 H   0  0  0  0  0  0  0  0  0  0  0  0
  145.9118  136.4438  151.4896 H   0  0  0  0  0  0  0  0  0  0  0  0
  145.2143  135.6680  150.0792 H   0  0  0  0  0  0  0  0  0  0  0  0
  146.8586  135.2988  150.5599 H   0  0  0  0  0  0  0  0  0  0  0  0
  143.9550  135.7783  152.7588 H   0  0  0  0  0  0  0  0  0  0  0  0
  143.5036  134.1096  153.0146 H   0  0  0  0  0  0  0  0  0  0  0  0
  143.2375  134.8533  151.4449 H   0  0  0  0  0  0  0  0  0  0  0  0
  1  2  1  0  0  0  0
  1 25  1  0  0  0  0
  1 26  1  0  0  0  0
  1 27  1  0  0  0  0
  2  3  1  0  0  0  0
  3 22  1  0  0  0  0
  3  4  1  0  0  0  0
  3  5  1  0  0  0  0
  4 28  1  0  0  0  0
  4 29  1  0  0  0  0
  4 30  1  0  0  0  0
  5  6  1  0  0  0  0
  5 31  1  0  0  0  0
  5 32  1  0  0  0  0
  6  7  1  0  0  0  0
  6 22  1  0  0  0  0
  6 33  1  0  0  0  0
  7  8  1  0  0  0  0
  7 34  1  0  0  0  0
  8  9  2  0  0  0  0
  8 10  1  0  0  0  0
 10 11  1  0  0  0  0
 10 35  1  0  0  0  0
 11 20  1  0  0  0  0
 11 12  2  0  0  0  0
 12 13  1  0  0  0  0
 12 36  1  0  0  0  0
 13 14  1  0  0  0  0
 13 18  2  0  0  0  0
 14 15  1  0  0  0  0
 14 16  1  0  0  0  0
 14 17  1  0  0  0  0
 18 19  1  0  0  0  0
 18 37  1  0  0  0  0
 19 20  1  0  0  0  0
 20 21  2  0  0  0  0
 22 23  1  0  0  0  0
 22 24  1  0  0  0  0
 23 38  1  0  0  0  0
 23 39  1  0  0  0  0
 23 40  1  0  0  0  0
 24 41  1  0  0  0  0
 24 42  1  0  0  0  0
 24 43  1  0  0  0  0
M  CHG  1  19  -1
M  END
> <s_m_source_file>
AV-unprocessed.smi

> <i_m_source_file_index>
697

> <i_lp_mmshare_version>
43012

> <i_f3d_flags>
0

> <s_epik_input>
W0NIM11PW0NAQF0xKFtDSDNdKVtDSDJdW0NASF0oQzEoW0NIM10pW0NIM10pW05IXUMoPU8pW05IXWMyW2NIXWMoQyhGKShGKUYpW2NIXVtuSF1jMj1P

> <s_epik_cmdline>
J2VwaWtfcHl0aG9uJywgJy1waCcsICc3LjAnLCAnLXRuJywgJzgnLCAnLW1hJywgJzIwMCcsICctbWV0YWxfYmluZGluZycsICctaW1hZScsICc8aW5maWxlLm1hZT4nLCAnLW9tYWUnLCAnPG91dGZpbGUubWFlPic=

> <r_lp_tautomer_probability>
1

> <r_epik_Ionization_Penalty>
3.20094

> <r_epik_Ionization_Penalty_Charging>
0.180017

> <r_epik_Ionization_Penalty_Neutral>
3.02092

> <r_epik_State_Penalty>
3.01726

> <r_epik_Charging_Adjusted_Penalty>
3.19727

> <i_epik_Tot_Q>
-1

> <i_epik_Tot_abs_Q>
1

> <r_epik_Metal_State_Penalty>
0.455096

> <b_epik_Metal_Only>
1

> <s_lp_Force_Field>
OPLS_2005

> <r_lp_Energy>
36.1164

> <b_lp_Chiralities_Consistent>
1

> <s_lp_Variant>
AV-unprocessed.smi:697-5

> <Gold.Version>
5.8.1

> <Gold.Id.Protein>
6NUR|6NUR_protein|mol2

> <Gold.PLP.Fitness>
39.2529

> <Gold.PLP.PLP>
-28.4935

> <Gold.PLP.part.hbond>
-3.0000

> <Gold.PLP.part.metal>
0.0000

> <Gold.PLP.part.buried>
-5.9655

> <Gold.PLP.part.nonpolar>
-21.7682

> <Gold.PLP.part.repulsive>
1.6829

> <Gold.PLP.ligand.clash>
0.0000

> <Gold.PLP.ligand.torsion>
0.6026

> <Gold.PLP.Chemscore.Hbond>
3.8393

> <Gold.PLP.Chemscore.CHOScore>
0.0000

> <Gold.PLP.Chemscore.Metal>
0.0000

> <Gold.Chemscore.Hbonds>
donor molecule, donor type, donor heavy atom, donor atom, acceptor molecule, acceptor atom, score
      L1  H     7    34       P1  7948  1.00
      L1  H    10    35       P1  7948  0.95
      P1  H  6896  6908       L1    19  1.69

> <Gold.PLP.Chemscore.Internal.Correction>
0.4467

> <Gold.Rescore>
     Score         DG    S(hbond)    S(metal)    S(lipo)     H(rot)  DE(clash)    DE(int)     intcor
     14.57     -18.14       2.60        0.00      62.36       1.30       0.11       3.46       ----

> <Gold.Chemscore.Fitness>
14.5678

> <Gold.Chemscore.DG>
-18.1350

> <Gold.Chemscore.ZeroCoef>
-5.4800

> <Gold.Chemscore.Hbond>
2.5988

> <Gold.Chemscore.Metal>
0.0000

> <Gold.Chemscore.Lipo>
62.3598

> <Gold.Chemscore.Internal_Hbond>
0.0000

> <Gold.Chemscore.DEClash>
0.1103

> <Gold.Chemscore.DEInternal>
3.4570

> <Gold.Chemscore.Rot>
1.2973

> <Gold.Chemscore.Internal.Correction>
   9.000000E+99

> <Gold.Chemscore.Hbonds>
donor molecule, donor type, donor heavy atom, donor atom, acceptor molecule, acceptor atom, score
      L1  H     7    34       P1  7948  1.00
      L1  H    10    35       P1  7948  0.85
      P1  H  6896  6908       L1    19  0.76

> <Gold.Chemscore.Hbond.Weighted>
-8.6799

> <Gold.Chemscore.Metal.Weighted>
-0.0000

> <Gold.Chemscore.Lipo.Weighted>
-7.2961

> <Gold.Chemscore.Internal_Hbond.Weighted>
0.0000

> <Gold.Chemscore.DEClash.Weighted>
0.1103

> <Gold.Chemscore.DEInternal.Weighted>
3.4570

> <Gold.Chemscore.Rot.Weighted>
3.3210

> <Gold.Chemscore.Internal.Correction.Weighted>
   9.000000E+99

> <Gold.Protein.RotatedTorsions>
[ 6907 6896 6895 6894 ] final -177.91 input  -60.11 | X-H torsion
[ 7974 7965 7964 7962 ] final   28.45 input  175.53 | X-H torsion
[ 8008 7997 7996 7995 ] final  102.04 input   59.86 | X-H torsion
[ 10167 10162 10161 10158 ] final  -22.19 input  -65.29 | X-H torsion
[ 10718 10713 10712 10709 ] final  -27.29 input   66.30 | X-H torsion
[ 10763 10752 10751 10750 ] final   98.04 input  -60.55 | X-H torsion
[ 11005 11000 10999 10996 ] final -177.76 input  -57.11 | X-H torsion

> <Gold.Protein.ActiveResidues>
 VAL166  LYS551  ARG553  GLY616  TRP617  ASP618  TYR619  PRO620  LYS621  CYS622 
 ASP623  PHE694  ASN695  SER759  ASP760  ASP761  ALA762  ILE779  LEU786  VAL792 
 PHE793  MET794  SER795  GLU796  ALA797  LYS798  CYS799  TRP800  GLU811  SER814 

> <Gold.Protein.RotatedAtoms>
  151.6287  133.3333  159.3103 H   0  0  0  0  0  0  0  0  0  0  0  0  # atno 6907 bound_to 6896
  150.8068  134.7202  159.6663 H   0  0  0  0  0  0  0  0  0  0  0  0  # atno 6908 bound_to 6896
  152.4164  134.6039  160.0059 H   0  0  0  0  0  0  0  0  0  0  0  0  # atno 6909 bound_to 6896
  146.1728  139.7054  142.8955 H   0  0  0  0  0  0  0  0  0  0  0  0  # atno 7974 bound_to 7965
  156.1355  140.3188  155.8415 H   0  0  0  0  0  0  0  0  0  0  0  0  # atno 8008 bound_to 7997
  155.4251  140.0515  157.3040 H   0  0  0  0  0  0  0  0  0  0  0  0  # atno 8009 bound_to 7997
  154.4934  140.2101  155.9512 H   0  0  0  0  0  0  0  0  0  0  0  0  # atno 8010 bound_to 7997
  140.7285  143.4558  151.0450 H   0  0  0  0  0  0  0  0  0  0  0  0  # atno 10167 bound_to 10162
  156.4401  130.4462  149.7058 H   0  0  0  0  0  0  0  0  0  0  0  0  # atno 10718 bound_to 10713
  153.2842  135.4162  155.1107 H   0  0  0  0  0  0  0  0  0  0  0  0  # atno 10763 bound_to 10752
  154.8499  135.3502  154.6069 H   0  0  0  0  0  0  0  0  0  0  0  0  # atno 10764 bound_to 10752
  153.6491  135.7053  153.5273 H   0  0  0  0  0  0  0  0  0  0  0  0  # atno 10765 bound_to 10752
  140.4373  134.6464  157.4741 H   0  0  0  0  0  0  0  0  0  0  0  0  # atno 11005 bound_to 11000
  145.4294  141.0414  143.2919 LP  0  0  0  0  0  0  0  0  0  0  0  0  # atno 17320 bound_to 7965
  144.8189  139.5827  143.6996 LP  0  0  0  0  0  0  0  0  0  0  0  0  # atno 17321 bound_to 7965
  139.8238  143.7783  152.3178 LP  0  0  0  0  0  0  0  0  0  0  0  0  # atno 17342 bound_to 10162
  139.7875  144.7422  151.0001 LP  0  0  0  0  0  0  0  0  0  0  0  0  # atno 17343 bound_to 10162
  156.3927  130.7635  151.2637 LP  0  0  0  0  0  0  0  0  0  0  0  0  # atno 17370 bound_to 10713
  157.7506  131.0263  150.3957 LP  0  0  0  0  0  0  0  0  0  0  0  0  # atno 17371 bound_to 10713
  140.0094  134.6714  155.9405 LP  0  0  0  0  0  0  0  0  0  0  0  0  # atno 17394 bound_to 11000
  141.1720  133.6538  156.4689 LP  0  0  0  0  0  0  0  0  0  0  0  0  # atno 17395 bound_to 11000

$$$$
