AV-unprocessed.smi:1762|AV-procd|sdf|7118|dock6
  -GOLD-   22720 8343D 1   1.00000     0.00000
 Structure written by MMmdl.
 53 54  0  0  0  0  0  0  0  0  2 V2000
  150.3474  134.8339  154.5325 C   0  0  0  0  0  0  0  0  0  0  0  0
  149.5234  135.3561  155.7233 C   0  0  1  0  0  0  0  0  0  0  0  0
  149.2927  136.8780  155.6904 C   0  0  0  0  0  0  0  0  0  0  0  0
  148.3181  137.2652  154.6297 N   0  3  2  0  0  0  0  0  0  0  0  0
  148.1636  138.7547  154.4913 C   0  0  1  0  0  0  0  0  0  0  0  0
  149.4872  139.4787  154.8213 C   0  0  0  0  0  0  0  0  0  0  0  0
  150.4904  139.2772  154.1354 O   0  0  0  0  0  0  0  0  0  0  0  0
  149.4723  140.3141  155.8707 N   0  0  0  0  0  0  0  0  0  0  0  0
  150.6148  141.0914  156.3322 C   0  0  0  0  0  0  0  0  0  0  0  0
  150.8421  140.8723  157.8343 C   0  0  0  0  0  0  0  0  0  0  0  0
  151.4159  142.1008  158.5149 C   0  0  0  0  0  0  0  0  0  0  0  0
  151.5985  143.3030  157.7985 C   0  0  0  0  0  0  0  0  0  0  0  0
  152.1308  144.4151  158.4793 C   0  0  0  0  0  0  0  0  0  0  0  0
  152.4565  144.2833  159.8430 C   0  0  0  0  0  0  0  0  0  0  0  0
  152.2349  143.0399  160.4679 C   0  0  0  0  0  0  0  0  0  0  0  0
  151.7266  141.9669  159.8240 N   0  0  0  0  0  0  0  0  0  0  0  0
  147.6130  139.2219  153.1008 C   0  0  0  0  0  0  0  0  0  0  0  0
  147.3223  140.7351  153.0178 C   0  0  0  0  0  0  0  0  0  0  0  0
  146.3815  138.4216  152.6321 C   0  0  0  0  0  0  0  0  0  0  0  0
  147.0548  136.5064  154.8410 C   0  0  0  0  0  0  0  0  0  0  0  0
  147.3187  134.9891  154.8629 C   0  0  2  0  0  0  0  0  0  0  0  0
  146.0460  134.1910  155.1663 C   0  0  0  0  0  0  0  0  0  0  0  0
  148.2779  134.6786  155.8668 O   0  0  0  0  0  0  0  0  0  0  0  0
  151.3467  135.2702  154.5345 H   0  0  0  0  0  0  0  0  0  0  0  0
  149.8922  135.0783  153.5731 H   0  0  0  0  0  0  0  0  0  0  0  0
  150.4614  133.7509  154.5839 H   0  0  0  0  0  0  0  0  0  0  0  0
  150.0938  135.1272  156.6240 H   0  0  0  0  0  0  0  0  0  0  0  0
  148.9106  137.2087  156.6576 H   0  0  0  0  0  0  0  0  0  0  0  0
  150.2565  137.3688  155.5578 H   0  0  0  0  0  0  0  0  0  0  0  0
  147.4277  139.0541  155.2404 H   0  0  0  0  0  0  0  0  0  0  0  0
  148.6078  140.4261  156.3807 H   0  0  0  0  0  0  0  0  0  0  0  0
  151.4973  140.7880  155.7676 H   0  0  0  0  0  0  0  0  0  0  0  0
  150.4564  142.1536  156.1364 H   0  0  0  0  0  0  0  0  0  0  0  0
  149.9010  140.6085  158.3194 H   0  0  0  0  0  0  0  0  0  0  0  0
  151.5150  140.0282  157.9914 H   0  0  0  0  0  0  0  0  0  0  0  0
  151.3371  143.3742  156.7530 H   0  0  0  0  0  0  0  0  0  0  0  0
  152.2855  145.3523  157.9649 H   0  0  0  0  0  0  0  0  0  0  0  0
  152.8661  145.1149  160.3972 H   0  0  0  0  0  0  0  0  0  0  0  0
  152.4725  142.9033  161.5124 H   0  0  0  0  0  0  0  0  0  0  0  0
  148.3668  138.9918  152.3494 H   0  0  0  0  0  0  0  0  0  0  0  0
  146.4813  141.0195  153.6507 H   0  0  0  0  0  0  0  0  0  0  0  0
  147.0702  141.0255  151.9975 H   0  0  0  0  0  0  0  0  0  0  0  0
  148.1797  141.3351  153.3212 H   0  0  0  0  0  0  0  0  0  0  0  0
  145.4959  138.6411  153.2294 H   0  0  0  0  0  0  0  0  0  0  0  0
  146.5650  137.3481  152.6850 H   0  0  0  0  0  0  0  0  0  0  0  0
  146.1363  138.6586  151.5963 H   0  0  0  0  0  0  0  0  0  0  0  0
  146.5861  136.8291  155.7721 H   0  0  0  0  0  0  0  0  0  0  0  0
  146.3414  136.6885  154.0401 H   0  0  0  0  0  0  0  0  0  0  0  0
  147.6900  134.6696  153.8890 H   0  0  0  0  0  0  0  0  0  0  0  0
  145.2768  134.3771  154.4164 H   0  0  0  0  0  0  0  0  0  0  0  0
  145.6349  134.4575  156.1404 H   0  0  0  0  0  0  0  0  0  0  0  0
  146.2499  133.1200  155.1728 H   0  0  0  0  0  0  0  0  0  0  0  0
  148.7002  136.9447  153.7510 H   0  0  0  0  0  0  0  0  0  0  0  0
  1  2  1  0  0  0  0
  1 24  1  0  0  0  0
  1 25  1  0  0  0  0
  1 26  1  0  0  0  0
  2 23  1  0  0  0  0
  2  3  1  0  0  0  0
  2 27  1  0  0  0  0
  3  4  1  0  0  0  0
  3 28  1  0  0  0  0
  3 29  1  0  0  0  0
  4  5  1  0  0  0  0
  4 20  1  0  0  0  0
  4 53  1  0  0  0  0
  5  6  1  0  0  0  0
  5 17  1  0  0  0  0
  5 30  1  0  0  0  0
  6  7  2  0  0  0  0
  6  8  1  0  0  0  0
  8  9  1  0  0  0  0
  8 31  1  0  0  0  0
  9 10  1  0  0  0  0
  9 32  1  0  0  0  0
  9 33  1  0  0  0  0
 10 11  1  0  0  0  0
 10 34  1  0  0  0  0
 10 35  1  0  0  0  0
 11 16  1  0  0  0  0
 11 12  2  0  0  0  0
 12 13  1  0  0  0  0
 12 36  1  0  0  0  0
 13 14  2  0  0  0  0
 13 37  1  0  0  0  0
 14 15  1  0  0  0  0
 14 38  1  0  0  0  0
 15 16  2  0  0  0  0
 15 39  1  0  0  0  0
 17 18  1  0  0  0  0
 17 19  1  0  0  0  0
 17 40  1  0  0  0  0
 18 41  1  0  0  0  0
 18 42  1  0  0  0  0
 18 43  1  0  0  0  0
 19 44  1  0  0  0  0
 19 45  1  0  0  0  0
 19 46  1  0  0  0  0
 20 21  1  0  0  0  0
 20 47  1  0  0  0  0
 20 48  1  0  0  0  0
 21 22  1  0  0  0  0
 21 23  1  0  0  0  0
 21 49  1  0  0  0  0
 22 50  1  0  0  0  0
 22 51  1  0  0  0  0
 22 52  1  0  0  0  0
M  CHG  1   4   1
M  END
> <s_m_source_file>
AV-unprocessed.smi

> <i_m_source_file_index>
1762

> <i_lp_mmshare_version>
43012

> <i_f3d_flags>
0

> <s_epik_input>
W0NIM11bQ0BASF0xW0NIMl1OKFtDSDJdW0NASF0oTzEpW0NIM10pW0NAQEhdKFtDSF0oW0NIM10pW0NIM10pQyg9TylbTkhdW0NIMl1bQ0gyXWMyW2NIXVtjSF1bY0hdW2NIXW4y

> <s_epik_cmdline>
J2VwaWtfcHl0aG9uJywgJy1waCcsICc3LjAnLCAnLXRuJywgJzgnLCAnLW1hJywgJzIwMCcsICctbWV0YWxfYmluZGluZycsICctaW1hZScsICc8aW5maWxlLm1hZT4nLCAnLW9tYWUnLCAnPG91dGZpbGUubWFlPic=

> <r_epik_Ionization_Penalty>
2.27005

> <r_epik_Ionization_Penalty_Charging>
2.24983

> <r_epik_Ionization_Penalty_Neutral>
0.0202209

> <r_epik_State_Penalty>
2.40228

> <r_epik_Charging_Adjusted_Penalty>
4.65211

> <i_epik_Tot_Q>
1

> <i_epik_Tot_abs_Q>
1

> <r_epik_Metal_State_Penalty>
2.40762

> <b_epik_Metal_Only>
0

> <s_lp_Force_Field>
OPLS_2005

> <r_lp_Energy>
25.0813

> <b_lp_Chiralities_Consistent>
1

> <s_lp_Variant>
AV-unprocessed.smi:1762-20

> <Gold.Version>
5.8.1

> <Gold.Id.Protein>
6NUR|6NUR_protein|mol2

> <Gold.PLP.Fitness>
43.5085

> <Gold.PLP.PLP>
-35.9102

> <Gold.PLP.part.hbond>
-2.1950

> <Gold.PLP.part.metal>
0.0000

> <Gold.PLP.part.buried>
-1.7542

> <Gold.PLP.part.nonpolar>
-32.3957

> <Gold.PLP.part.repulsive>
0.2764

> <Gold.PLP.ligand.clash>
0.0395

> <Gold.PLP.ligand.torsion>
0.8004

> <Gold.PLP.Chemscore.Hbond>
3.0000

> <Gold.PLP.Chemscore.CHOScore>
0.0000

> <Gold.PLP.Chemscore.Metal>
0.0000

> <Gold.Chemscore.Hbonds>
donor molecule, donor type, donor heavy atom, donor atom, acceptor molecule, acceptor atom, score
      L1  H     4    53       P1  7948  2.00
      P1  H  7989  7998       L1     7  0.94

> <Gold.PLP.Chemscore.Internal.Correction>
0.2385

> <Gold.Rescore>
     Score         DG    S(hbond)    S(metal)    S(lipo)     H(rot)  DE(clash)    DE(int)     intcor
     18.51     -20.43       1.85        0.00     111.45       1.66       0.14       1.79       ----

> <Gold.Chemscore.Fitness>
18.5053

> <Gold.Chemscore.DG>
-20.4312

> <Gold.Chemscore.ZeroCoef>
-5.4800

> <Gold.Chemscore.Hbond>
1.8474

> <Gold.Chemscore.Metal>
0.0000

> <Gold.Chemscore.Lipo>
111.4484

> <Gold.Chemscore.Internal_Hbond>
0.0000

> <Gold.Chemscore.DEClash>
0.1409

> <Gold.Chemscore.DEInternal>
1.7851

> <Gold.Chemscore.Rot>
1.6635

> <Gold.Chemscore.Internal.Correction>
   9.000000E+99

> <Gold.Chemscore.Hbonds>
donor molecule, donor type, donor heavy atom, donor atom, acceptor molecule, acceptor atom, score
      L1  H     4    53       P1  7948  0.93
      P1  H  7989  7998       L1     7  0.87

> <Gold.Chemscore.Hbond.Weighted>
-6.1704

> <Gold.Chemscore.Metal.Weighted>
-0.0000

> <Gold.Chemscore.Lipo.Weighted>
-13.0395

> <Gold.Chemscore.Internal_Hbond.Weighted>
0.0000

> <Gold.Chemscore.DEClash.Weighted>
0.1409

> <Gold.Chemscore.DEInternal.Weighted>
1.7851

> <Gold.Chemscore.Rot.Weighted>
4.2586

> <Gold.Chemscore.Internal.Correction.Weighted>
   9.000000E+99

> <Gold.Protein.RotatedTorsions>
[ 6907 6896 6895 6894 ] final  -58.11 input  -60.11 | X-H torsion
[ 7974 7965 7964 7962 ] final  150.21 input  175.53 | X-H torsion
[ 8008 7997 7996 7995 ] final  145.56 input   59.86 | X-H torsion
[ 10167 10162 10161 10158 ] final  130.44 input  -65.29 | X-H torsion
[ 10718 10713 10712 10709 ] final  -99.79 input   66.30 | X-H torsion
[ 10763 10752 10751 10750 ] final   48.98 input  -60.55 | X-H torsion
[ 11005 11000 10999 10996 ] final  132.26 input  -57.11 | X-H torsion

> <Gold.Protein.ActiveResidues>
 VAL166  LYS551  ARG553  GLY616  TRP617  ASP618  TYR619  PRO620  LYS621  CYS622 
 ASP623  PHE694  ASN695  SER759  ASP760  ASP761  ALA762  ILE779  LEU786  VAL792 
 PHE793  MET794  SER795  GLU796  ALA797  LYS798  CYS799  TRP800  GLU811  SER814 

> <Gold.Protein.RotatedAtoms>
  150.8033  134.7141  159.6620 H   0  0  0  0  0  0  0  0  0  0  0  0  # atno 6907 bound_to 6896
  152.4151  134.6053  160.0021 H   0  0  0  0  0  0  0  0  0  0  0  0  # atno 6908 bound_to 6896
  151.6284  133.3297  159.3139 H   0  0  0  0  0  0  0  0  0  0  0  0  # atno 6909 bound_to 6896
  144.8381  139.6379  143.6029 H   0  0  0  0  0  0  0  0  0  0  0  0  # atno 7974 bound_to 7965
  156.2880  140.2206  156.5234 H   0  0  0  0  0  0  0  0  0  0  0  0  # atno 8008 bound_to 7997
  154.7509  140.0480  157.0914 H   0  0  0  0  0  0  0  0  0  0  0  0  # atno 8009 bound_to 7997
  155.0111  140.3113  155.4832 H   0  0  0  0  0  0  0  0  0  0  0  0  # atno 8010 bound_to 7997
  139.5430  144.6748  151.4564 H   0  0  0  0  0  0  0  0  0  0  0  0  # atno 10167 bound_to 10162
  156.0144  130.5298  150.6721 H   0  0  0  0  0  0  0  0  0  0  0  0  # atno 10718 bound_to 10713
  152.9789  135.5926  154.4015 H   0  0  0  0  0  0  0  0  0  0  0  0  # atno 10763 bound_to 10752
  154.3660  135.2767  155.2295 H   0  0  0  0  0  0  0  0  0  0  0  0  # atno 10764 bound_to 10752
  154.4271  135.6045  153.6101 H   0  0  0  0  0  0  0  0  0  0  0  0  # atno 10765 bound_to 10752
  139.9780  134.9557  156.9557 H   0  0  0  0  0  0  0  0  0  0  0  0  # atno 11005 bound_to 11000
  146.2677  139.6560  142.9318 LP  0  0  0  0  0  0  0  0  0  0  0  0  # atno 17320 bound_to 7965
  145.4751  141.0437  143.2677 LP  0  0  0  0  0  0  0  0  0  0  0  0  # atno 17321 bound_to 7965
  140.6667  143.8382  150.6950 LP  0  0  0  0  0  0  0  0  0  0  0  0  # atno 17342 bound_to 10162
  140.1793  143.4128  152.1944 LP  0  0  0  0  0  0  0  0  0  0  0  0  # atno 17343 bound_to 10162
  157.4442  131.0865  151.0913 LP  0  0  0  0  0  0  0  0  0  0  0  0  # atno 17370 bound_to 10713
  157.1448  130.6158  149.5565 LP  0  0  0  0  0  0  0  0  0  0  0  0  # atno 17371 bound_to 10713
  140.5155  134.0959  155.7280 LP  0  0  0  0  0  0  0  0  0  0  0  0  # atno 17394 bound_to 11000
  141.1455  133.9063  157.2226 LP  0  0  0  0  0  0  0  0  0  0  0  0  # atno 17395 bound_to 11000

$$$$
