AV-unprocessed.smi:2564|AV-procd|sdf|10065|dock2
  -GOLD-   2272014103D 1   1.00000     0.00000
 Structure written by MMmdl.
 30 31  0  0  0  0  0  0  0  0  3 V2000
  152.6455  142.8366  159.3077 C   0  0  0  0  0  0  0  0  0  0  0  0
  152.4354  144.2195  159.4505 C   0  0  0  0  0  0  0  0  0  0  0  0
  151.6251  144.9329  158.6371 N   0  0  0  0  0  0  0  0  0  0  0  0
  150.9957  144.2764  157.6465 N   0  3  0  0  0  0  0  0  0  0  0  0
  151.1302  142.9450  157.4228 C   0  0  0  0  0  0  0  0  0  0  0  0
  150.4028  142.4174  156.3477 N   0  0  0  0  0  0  0  0  0  0  0  0
  150.4799  141.0002  156.0261 C   0  0  0  0  0  0  0  0  0  0  0  0
  149.6717  140.6605  154.7648 C   0  0  1  0  0  0  0  0  0  0  0  0
  149.7344  139.1552  154.4343 C   0  0  0  0  0  0  0  0  0  0  0  0
  148.8771  138.8509  153.2714 N   0  3  0  0  0  0  0  0  0  0  0  0
  147.4915  139.3135  153.4819 C   0  0  0  0  0  0  0  0  0  0  0  0
  147.4851  140.8054  153.8541 C   0  0  0  0  0  0  0  0  0  0  0  0
  148.3097  141.0141  154.9967 O   0  0  0  0  0  0  0  0  0  0  0  0
  151.9728  142.1803  158.2629 C   0  0  0  0  0  0  0  0  0  0  0  0
  153.3009  142.2997  159.9775 H   0  0  0  0  0  0  0  0  0  0  0  0
  152.9298  144.7701  160.2373 H   0  0  0  0  0  0  0  0  0  0  0  0
  149.6875  142.9772  155.9057 H   0  0  0  0  0  0  0  0  0  0  0  0
  151.5268  140.7390  155.8667 H   0  0  0  0  0  0  0  0  0  0  0  0
  150.1233  140.4100  156.8714 H   0  0  0  0  0  0  0  0  0  0  0  0
  150.0628  141.2341  153.9219 H   0  0  0  0  0  0  0  0  0  0  0  0
  150.7573  138.8508  154.2110 H   0  0  0  0  0  0  0  0  0  0  0  0
  149.4010  138.5624  155.2875 H   0  0  0  0  0  0  0  0  0  0  0  0
  149.2536  139.3200  152.4596 H   0  0  0  0  0  0  0  0  0  0  0  0
  146.9094  139.1396  152.5768 H   0  0  0  0  0  0  0  0  0  0  0  0
  147.0339  138.7244  154.2776 H   0  0  0  0  0  0  0  0  0  0  0  0
  147.8354  141.4180  153.0217 H   0  0  0  0  0  0  0  0  0  0  0  0
  146.4705  141.1312  154.0843 H   0  0  0  0  0  0  0  0  0  0  0  0
  152.1107  141.1187  158.1218 H   0  0  0  0  0  0  0  0  0  0  0  0
  148.8763  137.8545  153.1039 H   0  0  0  0  0  0  0  0  0  0  0  0
  150.3826  144.8093  157.0293 H   0  0  0  0  0  0  0  0  0  0  0  0
  1 14  1  0  0  0  0
  1  2  2  0  0  0  0
  1 15  1  0  0  0  0
  2  3  1  0  0  0  0
  2 16  1  0  0  0  0
  3  4  2  0  0  0  0
  4  5  1  0  0  0  0
  4 30  1  0  0  0  0
  5  6  1  0  0  0  0
  5 14  2  0  0  0  0
  6  7  1  0  0  0  0
  6 17  1  0  0  0  0
  7  8  1  0  0  0  0
  7 18  1  0  0  0  0
  7 19  1  0  0  0  0
  8 13  1  0  0  0  0
  8  9  1  0  0  0  0
  8 20  1  0  0  0  0
  9 10  1  0  0  0  0
  9 21  1  0  0  0  0
  9 22  1  0  0  0  0
 10 11  1  0  0  0  0
 10 23  1  0  0  0  0
 10 29  1  0  0  0  0
 11 12  1  0  0  0  0
 11 24  1  0  0  0  0
 11 25  1  0  0  0  0
 12 13  1  0  0  0  0
 12 26  1  0  0  0  0
 12 27  1  0  0  0  0
 14 28  1  0  0  0  0
M  CHG  1   4   1
M  CHG  1  10   1
M  END
> <s_m_source_file>
AV-unprocessed.smi

> <i_m_source_file_index>
2564

> <i_lp_mmshare_version>
43012

> <i_f3d_flags>
0

> <s_epik_input>
W2NIXTFbY0hdW2NIXW5uYzFbTkhdW0NIMl1bQ0BASF0yW0NIMl1bTkhdW0NIMl1bQ0gyXU8y

> <s_epik_cmdline>
J2VwaWtfcHl0aG9uJywgJy1waCcsICc3LjAnLCAnLXRuJywgJzgnLCAnLW1hJywgJzIwMCcsICctbWV0YWxfYmluZGluZycsICctaW1hZScsICc8aW5maWxlLm1hZT4nLCAnLW9tYWUnLCAnPG91dGZpbGUubWFlPic=

> <r_lp_tautomer_probability>
0.966961

> <r_epik_Ionization_Penalty>
2.43489

> <r_epik_Ionization_Penalty_Charging>
2.43489

> <r_epik_Ionization_Penalty_Neutral>
2.70443e-06

> <r_epik_State_Penalty>
1.93608

> <r_epik_Charging_Adjusted_Penalty>
4.37096

> <i_epik_Tot_Q>
2

> <i_epik_Tot_abs_Q>
2

> <r_epik_Metal_State_Penalty>
1.94389

> <b_epik_Metal_Only>
0

> <s_lp_Force_Field>
OPLS_2005

> <r_lp_Energy>
28.6288

> <b_lp_Chiralities_Consistent>
1

> <s_lp_Variant>
AV-unprocessed.smi:2564-4

> <Gold.Version>
5.8.1

> <Gold.Id.Protein>
6NUR|6NUR_protein|mol2

> <Gold.PLP.Fitness>
51.3004

> <Gold.PLP.PLP>
-30.8194

> <Gold.PLP.part.hbond>
-3.9856

> <Gold.PLP.part.metal>
0.0000

> <Gold.PLP.part.buried>
-5.1876

> <Gold.PLP.part.nonpolar>
-23.3208

> <Gold.PLP.part.repulsive>
0.4140

> <Gold.PLP.ligand.clash>
0.0000

> <Gold.PLP.ligand.torsion>
0.0065

> <Gold.PLP.Chemscore.Hbond>
6.8313

> <Gold.PLP.Chemscore.CHOScore>
0.0000

> <Gold.PLP.Chemscore.Metal>
0.0000

> <Gold.Chemscore.Hbonds>
donor molecule, donor type, donor heavy atom, donor atom, acceptor molecule, acceptor atom, score
      L1  H     4    30       P1  8028  1.92
      L1  H     6    17       P1  8028  1.92
      L1  H    10    23       P1  7957  0.98
      L1  H    10    29       P1  7948  2.00

> <Gold.PLP.Chemscore.Internal.Correction>
0.0003

> <Gold.Rescore>
     Score         DG    S(hbond)    S(metal)    S(lipo)     H(rot)  DE(clash)    DE(int)     intcor
     21.51     -21.55       3.43        0.00      68.93       1.35       0.02       0.01       ----

> <Gold.Chemscore.Fitness>
21.5148

> <Gold.Chemscore.DG>
-21.5517

> <Gold.Chemscore.ZeroCoef>
-5.4800

> <Gold.Chemscore.Hbond>
3.4298

> <Gold.Chemscore.Metal>
0.0000

> <Gold.Chemscore.Lipo>
68.9319

> <Gold.Chemscore.Internal_Hbond>
0.0000

> <Gold.Chemscore.DEClash>
0.0234

> <Gold.Chemscore.DEInternal>
0.0135

> <Gold.Chemscore.Rot>
1.3472

> <Gold.Chemscore.Internal.Correction>
   9.000000E+99

> <Gold.Chemscore.Hbonds>
donor molecule, donor type, donor heavy atom, donor atom, acceptor molecule, acceptor atom, score
      L1  H     4    30       P1  8028  0.45
      L1  H     6    17       P1  8028  0.92
      L1  H    10    23       P1  7957  0.91
      L1  H    10    29       P1  7948  0.90

> <Gold.Chemscore.Hbond.Weighted>
-11.4555

> <Gold.Chemscore.Metal.Weighted>
-0.0000

> <Gold.Chemscore.Lipo.Weighted>
-8.0650

> <Gold.Chemscore.Internal_Hbond.Weighted>
0.0000

> <Gold.Chemscore.DEClash.Weighted>
0.0234

> <Gold.Chemscore.DEInternal.Weighted>
0.0135

> <Gold.Chemscore.Rot.Weighted>
3.4489

> <Gold.Chemscore.Internal.Correction.Weighted>
   9.000000E+99

> <Gold.Protein.RotatedTorsions>
[ 6907 6896 6895 6894 ] final  -16.12 input  -60.11 | X-H torsion
[ 7974 7965 7964 7962 ] final  101.84 input  175.53 | X-H torsion
[ 8008 7997 7996 7995 ] final   -7.98 input   59.86 | X-H torsion
[ 10167 10162 10161 10158 ] final  -47.35 input  -65.29 | X-H torsion
[ 10718 10713 10712 10709 ] final  120.53 input   66.30 | X-H torsion
[ 10763 10752 10751 10750 ] final  -16.39 input  -60.55 | X-H torsion
[ 11005 11000 10999 10996 ] final -153.91 input  -57.11 | X-H torsion

> <Gold.Protein.ActiveResidues>
 VAL166  LYS551  ARG553  GLY616  TRP617  ASP618  TYR619  PRO620  LYS621  CYS622 
 ASP623  PHE694  ASN695  SER759  ASP760  ASP761  ALA762  ILE779  LEU786  VAL792 
 PHE793  MET794  SER795  GLU796  ALA797  LYS798  CYS799  TRP800  GLU811  SER814 

> <Gold.Protein.RotatedAtoms>
  151.3135  135.0800  159.9280 H   0  0  0  0  0  0  0  0  0  0  0  0  # atno 6907 bound_to 6896
  152.5272  133.9712  159.7773 H   0  0  0  0  0  0  0  0  0  0  0  0  # atno 6908 bound_to 6896
  151.0020  133.5995  159.2724 H   0  0  0  0  0  0  0  0  0  0  0  0  # atno 6909 bound_to 6896
  145.3670  139.2406  143.3475 H   0  0  0  0  0  0  0  0  0  0  0  0  # atno 7974 bound_to 7965
  154.5786  140.2393  155.8087 H   0  0  0  0  0  0  0  0  0  0  0  0  # atno 8008 bound_to 7997
  156.2162  140.3011  155.9801 H   0  0  0  0  0  0  0  0  0  0  0  0  # atno 8009 bound_to 7997
  155.2582  140.0413  157.2985 H   0  0  0  0  0  0  0  0  0  0  0  0  # atno 8010 bound_to 7997
  140.6779  143.2788  151.3914 H   0  0  0  0  0  0  0  0  0  0  0  0  # atno 10167 bound_to 10162
  157.5884  131.1067  150.8049 H   0  0  0  0  0  0  0  0  0  0  0  0  # atno 10718 bound_to 10713
  153.5579  135.7010  153.5561 H   0  0  0  0  0  0  0  0  0  0  0  0  # atno 10763 bound_to 10752
  153.3456  135.4009  155.1606 H   0  0  0  0  0  0  0  0  0  0  0  0  # atno 10764 bound_to 10752
  154.8652  135.3753  154.5094 H   0  0  0  0  0  0  0  0  0  0  0  0  # atno 10765 bound_to 10752
  140.7030  134.3916  157.5207 H   0  0  0  0  0  0  0  0  0  0  0  0  # atno 11005 bound_to 11000
  146.2902  140.4315  142.8742 LP  0  0  0  0  0  0  0  0  0  0  0  0  # atno 17320 bound_to 7965
  144.8604  140.7131  143.6111 LP  0  0  0  0  0  0  0  0  0  0  0  0  # atno 17321 bound_to 7965
  139.6082  144.1153  152.2271 LP  0  0  0  0  0  0  0  0  0  0  0  0  # atno 17342 bound_to 10162
  140.0559  144.5895  150.7300 LP  0  0  0  0  0  0  0  0  0  0  0  0  # atno 17343 bound_to 10162
  156.8477  130.5070  149.5315 LP  0  0  0  0  0  0  0  0  0  0  0  0  # atno 17370 bound_to 10713
  156.0935  130.5914  150.9774 LP  0  0  0  0  0  0  0  0  0  0  0  0  # atno 17371 bound_to 10713
  139.8891  134.8838  156.2436 LP  0  0  0  0  0  0  0  0  0  0  0  0  # atno 17394 bound_to 11000
  141.0148  133.7075  156.1170 LP  0  0  0  0  0  0  0  0  0  0  0  0  # atno 17395 bound_to 11000

$$$$
