AV-unprocessed.smi:3316|AV-procd|sdf|12754|dock5
  -GOLD-   2272019 93D 1   1.00000     0.00000
 Structure written by MMmdl.
 41 43  0  0  0  0  0  0  0  0  2 V2000
  148.0582  140.1805  153.7618 C   0  0  0  0  0  0  0  0  0  0  0  0
  149.2280  140.8006  154.5422 C   0  0  1  0  0  0  0  0  0  0  0  0
  148.7745  141.3248  155.9185 C   0  0  0  0  0  0  0  0  0  0  0  0
  149.7130  142.3347  156.4489 N   0  3  0  0  0  0  0  0  0  0  0  0
  150.1214  142.1050  157.8479 C   0  0  0  0  0  0  0  0  0  0  0  0
  151.5252  142.6799  158.1139 C   0  0  2  0  0  0  0  0  0  0  0  0
  152.0208  142.5216  159.5856 C   0  0  0  0  0  0  0  0  0  0  0  0
  152.4155  143.9643  159.9761 C   0  0  2  0  0  0  0  0  0  0  0  0
  151.1434  144.7798  160.0582 C   0  0  0  0  0  0  0  0  0  0  0  0
  150.6874  144.9289  158.8135 C   0  0  0  0  0  0  0  0  0  0  0  0
  151.6510  144.2102  157.8897 C   0  0  1  0  0  0  0  0  0  0  0  0
  152.9663  144.4644  158.6363 C   0  0  0  0  0  0  0  0  0  0  0  0
  150.3938  139.8258  154.6619 C   0  0  0  0  0  0  0  0  0  0  0  0
  151.5163  140.1445  155.4552 C   0  0  0  0  0  0  0  0  0  0  0  0
  152.5648  139.2072  155.5487 C   0  0  0  0  0  0  0  0  0  0  0  0
  152.5498  138.0131  154.9194 N   0  0  0  0  0  0  0  0  0  0  0  0
  151.4752  137.7126  154.1600 C   0  0  0  0  0  0  0  0  0  0  0  0
  150.3751  138.5786  153.9998 C   0  0  0  0  0  0  0  0  0  0  0  0
  148.3773  139.8567  152.7707 H   0  0  0  0  0  0  0  0  0  0  0  0
  147.2507  140.9007  153.6271 H   0  0  0  0  0  0  0  0  0  0  0  0
  147.6439  139.3137  154.2772 H   0  0  0  0  0  0  0  0  0  0  0  0
  149.5732  141.6584  153.9630 H   0  0  0  0  0  0  0  0  0  0  0  0
  147.7846  141.7762  155.8391 H   0  0  0  0  0  0  0  0  0  0  0  0
  148.6909  140.5008  156.6286 H   0  0  0  0  0  0  0  0  0  0  0  0
  150.5429  142.3285  155.8730 H   0  0  0  0  0  0  0  0  0  0  0  0
  149.3957  142.5812  158.5083 H   0  0  0  0  0  0  0  0  0  0  0  0
  150.0954  141.0351  158.0584 H   0  0  0  0  0  0  0  0  0  0  0  0
  152.2323  142.1829  157.4471 H   0  0  0  0  0  0  0  0  0  0  0  0
  151.2551  142.1218  160.2524 H   0  0  0  0  0  0  0  0  0  0  0  0
  152.8815  141.8533  159.6322 H   0  0  0  0  0  0  0  0  0  0  0  0
  153.0842  144.0700  160.8307 H   0  0  0  0  0  0  0  0  0  0  0  0
  150.6944  145.1326  160.9748 H   0  0  0  0  0  0  0  0  0  0  0  0
  149.7847  145.4291  158.4953 H   0  0  0  0  0  0  0  0  0  0  0  0
  151.6334  144.5495  156.8536 H   0  0  0  0  0  0  0  0  0  0  0  0
  153.2469  145.5195  158.6581 H   0  0  0  0  0  0  0  0  0  0  0  0
  153.8111  143.8837  158.2607 H   0  0  0  0  0  0  0  0  0  0  0  0
  151.5803  141.0848  155.9832 H   0  0  0  0  0  0  0  0  0  0  0  0
  153.4376  139.4218  156.1475 H   0  0  0  0  0  0  0  0  0  0  0  0
  151.4905  136.7520  153.6668 H   0  0  0  0  0  0  0  0  0  0  0  0
  149.5397  138.2857  153.3811 H   0  0  0  0  0  0  0  0  0  0  0  0
  149.2813  143.2454  156.3824 H   0  0  0  0  0  0  0  0  0  0  0  0
  1  2  1  0  0  0  0
  1 19  1  0  0  0  0
  1 20  1  0  0  0  0
  1 21  1  0  0  0  0
  2  3  1  0  0  0  0
  2 13  1  0  0  0  0
  2 22  1  0  0  0  0
  3  4  1  0  0  0  0
  3 23  1  0  0  0  0
  3 24  1  0  0  0  0
  4  5  1  0  0  0  0
  4 25  1  0  0  0  0
  4 41  1  0  0  0  0
  5  6  1  0  0  0  0
  5 26  1  0  0  0  0
  5 27  1  0  0  0  0
  6 11  1  0  0  0  0
  6  7  1  0  0  0  0
  6 28  1  0  0  0  0
  7  8  1  0  0  0  0
  7 29  1  0  0  0  0
  7 30  1  0  0  0  0
  8 12  1  0  0  0  0
  8  9  1  0  0  0  0
  8 31  1  0  0  0  0
  9 10  2  0  0  0  0
  9 32  1  0  0  0  0
 10 11  1  0  0  0  0
 10 33  1  0  0  0  0
 11 12  1  0  0  0  0
 11 34  1  0  0  0  0
 12 35  1  0  0  0  0
 12 36  1  0  0  0  0
 13 18  1  0  0  0  0
 13 14  2  0  0  0  0
 14 15  1  0  0  0  0
 14 37  1  0  0  0  0
 15 16  2  0  0  0  0
 15 38  1  0  0  0  0
 16 17  1  0  0  0  0
 17 18  2  0  0  0  0
 17 39  1  0  0  0  0
 18 40  1  0  0  0  0
M  CHG  1   4   1
M  END
> <s_m_source_file>
AV-unprocessed.smi

> <i_m_source_file_index>
3316

> <i_lp_mmshare_version>
43012

> <i_f3d_flags>
0

> <s_epik_input>
W2NIXTFbY0hdbltjSF1bY0hdYzFbQ0BIXShbQ0gzXSlbQ0gyXVtOSF1bQ0gyXVtDQEhdKFtDSDJdW0NASF0yMylbQ0BIXShbQ0gyXTMpW0NIXT1bQ0hdMg==

> <s_epik_cmdline>
J2VwaWtfcHl0aG9uJywgJy1waCcsICc3LjAnLCAnLXRuJywgJzgnLCAnLW1hJywgJzIwMCcsICctbWV0YWxfYmluZGluZycsICctaW1hZScsICc8aW5maWxlLm1hZT4nLCAnLW9tYWUnLCAnPG91dGZpbGUubWFlPic=

> <r_lp_tautomer_probability>
1

> <r_epik_Ionization_Penalty>
0.00280406

> <r_epik_Ionization_Penalty_Charging>
0.000446589

> <r_epik_Ionization_Penalty_Neutral>
0.00235747

> <r_epik_State_Penalty>
-0

> <r_epik_Charging_Adjusted_Penalty>
0.000446589

> <i_epik_Tot_Q>
1

> <i_epik_Tot_abs_Q>
1

> <r_epik_Metal_State_Penalty>
-0

> <b_epik_Metal_Only>
0

> <s_lp_Force_Field>
OPLS_2005

> <r_lp_Energy>
65.6542

> <b_lp_Chiralities_Consistent>
1

> <s_lp_Variant>
AV-unprocessed.smi:3316-2

> <Gold.Version>
5.8.1

> <Gold.Id.Protein>
6NUR|6NUR_protein|mol2

> <Gold.PLP.Fitness>
54.5235

> <Gold.PLP.PLP>
-47.1476

> <Gold.PLP.part.hbond>
-1.9362

> <Gold.PLP.part.metal>
0.0000

> <Gold.PLP.part.buried>
-2.1690

> <Gold.PLP.part.nonpolar>
-43.3348

> <Gold.PLP.part.repulsive>
0.1135

> <Gold.PLP.ligand.clash>
0.0000

> <Gold.PLP.ligand.torsion>
0.8338

> <Gold.PLP.Chemscore.Hbond>
2.0296

> <Gold.PLP.Chemscore.CHOScore>
0.9425

> <Gold.PLP.Chemscore.Metal>
0.0000

> <Gold.Chemscore.Hbonds>
donor molecule, donor type, donor heavy atom, donor atom, acceptor molecule, acceptor atom, score
      L1  H     4    41       P1  8028  2.00
      L1  C    17    39       P1  7949  1.00

> <Gold.PLP.Chemscore.Internal.Correction>
0.1270

> <Gold.Rescore>
     Score         DG    S(hbond)    S(metal)    S(lipo)     H(rot)  DE(clash)    DE(int)     intcor
     23.02     -24.26       1.59        0.00     144.85       1.36       0.46       0.77       ----

> <Gold.Chemscore.Fitness>
23.0249

> <Gold.Chemscore.DG>
-24.2564

> <Gold.Chemscore.ZeroCoef>
-5.4800

> <Gold.Chemscore.Hbond>
1.5932

> <Gold.Chemscore.Metal>
0.0000

> <Gold.Chemscore.Lipo>
144.8474

> <Gold.Chemscore.Internal_Hbond>
0.0000

> <Gold.Chemscore.DEClash>
0.4610

> <Gold.Chemscore.DEInternal>
0.7704

> <Gold.Chemscore.Rot>
1.3640

> <Gold.Chemscore.Internal.Correction>
   9.000000E+99

> <Gold.Chemscore.Hbonds>
donor molecule, donor type, donor heavy atom, donor atom, acceptor molecule, acceptor atom, score
      L1  H     4    41       P1  8028  0.99

> <Gold.Chemscore.Hbond.Weighted>
-5.3211

> <Gold.Chemscore.Metal.Weighted>
-0.0000

> <Gold.Chemscore.Lipo.Weighted>
-16.9472

> <Gold.Chemscore.Internal_Hbond.Weighted>
0.0000

> <Gold.Chemscore.DEClash.Weighted>
0.4610

> <Gold.Chemscore.DEInternal.Weighted>
0.7704

> <Gold.Chemscore.Rot.Weighted>
3.4919

> <Gold.Chemscore.Internal.Correction.Weighted>
   9.000000E+99

> <Gold.Protein.RotatedTorsions>
[ 6907 6896 6895 6894 ] final   64.42 input  -60.11 | X-H torsion
[ 7974 7965 7964 7962 ] final -107.00 input  175.53 | X-H torsion
[ 8008 7997 7996 7995 ] final   -8.34 input   59.86 | X-H torsion
[ 10167 10162 10161 10158 ] final   90.92 input  -65.29 | X-H torsion
[ 10718 10713 10712 10709 ] final  -50.86 input   66.30 | X-H torsion
[ 10763 10752 10751 10750 ] final  176.82 input  -60.55 | X-H torsion
[ 11005 11000 10999 10996 ] final   25.22 input  -57.11 | X-H torsion

> <Gold.Protein.ActiveResidues>
 VAL166  LYS551  ARG553  GLY616  TRP617  ASP618  TYR619  PRO620  LYS621  CYS622 
 ASP623  PHE694  ASN695  SER759  ASP760  ASP761  ALA762  ILE779  LEU786  VAL792 
 PHE793  MET794  SER795  GLU796  ALA797  LYS798  CYS799  TRP800  GLU811  SER814 

> <Gold.Protein.RotatedAtoms>
  152.4330  134.5741  159.9929 H   0  0  0  0  0  0  0  0  0  0  0  0  # atno 6907 bound_to 6896
  151.5859  133.3366  159.3026 H   0  0  0  0  0  0  0  0  0  0  0  0  # atno 6908 bound_to 6896
  150.8225  134.7475  159.6849 H   0  0  0  0  0  0  0  0  0  0  0  0  # atno 6909 bound_to 6896
  145.2108  140.9095  143.3315 H   0  0  0  0  0  0  0  0  0  0  0  0  # atno 7974 bound_to 7965
  154.5750  140.2383  155.8136 H   0  0  0  0  0  0  0  0  0  0  0  0  # atno 8008 bound_to 7997
  156.2136  140.3019  155.9746 H   0  0  0  0  0  0  0  0  0  0  0  0  # atno 8009 bound_to 7997
  155.2643  140.0415  157.2991 H   0  0  0  0  0  0  0  0  0  0  0  0  # atno 8010 bound_to 7997
  139.8426  144.6634  150.9265 H   0  0  0  0  0  0  0  0  0  0  0  0  # atno 10167 bound_to 10162
  156.1762  130.4150  149.9573 H   0  0  0  0  0  0  0  0  0  0  0  0  # atno 10718 bound_to 10713
  154.4862  135.2777  155.1532 H   0  0  0  0  0  0  0  0  0  0  0  0  # atno 10763 bound_to 10752
  154.3222  135.6207  153.5517 H   0  0  0  0  0  0  0  0  0  0  0  0  # atno 10764 bound_to 10752
  152.9881  135.5745  154.5273 H   0  0  0  0  0  0  0  0  0  0  0  0  # atno 10765 bound_to 10752
  140.3502  134.2237  155.7681 H   0  0  0  0  0  0  0  0  0  0  0  0  # atno 11005 bound_to 11000
  144.9857  139.3738  143.6239 LP  0  0  0  0  0  0  0  0  0  0  0  0  # atno 17320 bound_to 7965
  146.3398  139.9018  142.8793 LP  0  0  0  0  0  0  0  0  0  0  0  0  # atno 17321 bound_to 7965
  140.7796  143.3899  151.1328 LP  0  0  0  0  0  0  0  0  0  0  0  0  # atno 17342 bound_to 10162
  139.7544  143.8729  152.3085 LP  0  0  0  0  0  0  0  0  0  0  0  0  # atno 17343 bound_to 10162
  156.7358  130.9060  151.3629 LP  0  0  0  0  0  0  0  0  0  0  0  0  # atno 17370 bound_to 10713
  157.6837  130.9165  150.0332 LP  0  0  0  0  0  0  0  0  0  0  0  0  # atno 17371 bound_to 10713
  141.2014  133.7963  157.0441 LP  0  0  0  0  0  0  0  0  0  0  0  0  # atno 17394 bound_to 11000
  140.0709  134.9702  157.1466 LP  0  0  0  0  0  0  0  0  0  0  0  0  # atno 17395 bound_to 11000

$$$$
