#       Name:                AV-unprocessed.smi:2695
#       Creating user name   scv26
#       Creation time:       Fri Mar 27 14:44:23 2020


#       File generated by GOLD software.
#

@<TRIPOS>MOLECULE
AV-unprocessed.smi:2695
    45    46     1
SMALL
NO_CHARGES


@<TRIPOS>ATOM
      1 ****        -2.8032   1.5896   2.4939 C.3            1 S1                 0.0000
      2 ****        -2.8894   2.5597   1.3216 C.2            1 S1                 0.0000
      3 ****        -3.4242   3.7893   1.4888 C.2            1 S1                 0.0000
      4 ****        -3.4913   4.7052   0.4471 C.2            1 S1                 0.0000
      5 ****        -3.9887   5.8432   0.5956 O.co2          1 S1                -1.0000
      6 ****        -2.9680   4.2818  -0.7674 C.2            1 S1                 0.0000
      7 ****        -2.3726   2.9730  -1.0071 C.2            1 S1                 0.0000
      8 ****        -1.9115   2.6544  -2.1048 O.2            1 S1                 0.0000
      9 ****        -2.3733   2.1353   0.0680 N.am           1 S1                 0.0000
     10 ****        -1.8374   0.7659  -0.1057 C.3            1 S1                 0.0000
     11 ****        -0.3100   0.6900   0.0348 C.2            1 S1                 0.0000
     12 ****         0.2965   1.4714   0.7684 O.2            1 S1                 0.0000
     13 ****         0.2942  -0.2801  -0.6675 N.am           1 S1                 0.0000
     14 ****         1.7301  -0.5626  -0.6826 C.3            1 S1                 0.0000
     15 ****         1.9338  -2.0986  -0.7282 C.3            1 S1                 0.0000
     16 ****         1.2349  -2.8552   0.4100 C.3            1 S1                 0.0000
     17 ****         1.9166  -4.2252   0.4665 C.3            1 S1                 0.0000
     18 ****         3.3024  -4.0398  -0.1665 C.3            1 S1                 0.0000
     19 ****         3.3868  -2.5716  -0.5983 C.3            1 S1                 0.0000
     20 ****         2.3957   0.1936  -1.8583 C.3            1 S1                 0.0000
     21 ****         2.1421   1.4999  -1.7741 F              1 S1                 0.0000
     22 ****         3.7190   0.0410  -1.8328 F              1 S1                 0.0000
     23 ****         1.9326  -0.2559  -3.0253 F              1 S1                 0.0000
     24 ****        -3.0040   2.1028   3.4348 H              1 S1                 0.0000
     25 ****        -1.8115   1.1468   2.5839 H              1 S1                 0.0000
     26 ****        -3.5421   0.7949   2.3893 H              1 S1                 0.0000
     27 ****        -3.8063   4.0672   2.4609 H              1 S1                 0.0000
     28 ****        -2.9976   4.9642  -1.6051 H              1 S1                 0.0000
     29 ****        -2.2870   0.0509   0.5807 H              1 S1                 0.0000
     30 ****        -2.1206   0.3790  -1.0867 H              1 S1                 0.0000
     31 ****        -0.2863  -0.8701  -1.2457 H              1 S1                 0.0000
     32 ****         2.1721  -0.1985   0.2469 H              1 S1                 0.0000
     33 ****         1.5392  -2.4800  -1.6716 H              1 S1                 0.0000
     34 ****         1.3951  -2.3323   1.3543 H              1 S1                 0.0000
     35 ****         0.1578  -2.9397   0.2609 H              1 S1                 0.0000
     36 ****         1.9802  -4.5965   1.4898 H              1 S1                 0.0000
     37 ****         1.3433  -4.9530  -0.1092 H              1 S1                 0.0000
     38 ****         4.1046  -4.2957   0.5263 H              1 S1                 0.0000
     39 ****         3.4009  -4.6934  -1.0343 H              1 S1                 0.0000
     40 ****         3.9504  -2.4567  -1.5244 H              1 S1                 0.0000
     41 ****         3.8978  -1.9952   0.1743 H              1 S1                 0.0000
     42 ****        -1.9388   3.3026  -2.8658 LP             1 S1                 0.0000
     43 ****        -1.5101   1.7477  -2.2345 LP             1 S1                 0.0000
     44 ****        -0.2058   2.1669   1.2822 LP             1 S1                 0.0000
     45 ****         1.2912   1.4105   0.8502 LP             1 S1                 0.0000
@<TRIPOS>BOND
    1    1    2 1     
    2    1   24 1     
    3    1   25 1     
    4    1   26 1     
    5    2    9 1     
    6    2    3 2     
    7    3    4 1     
    8    3   27 1     
    9    4    5 ar    
   10    4    6 2     
   11    6    7 1     
   12    6   28 1     
   13    7    8 2     
   14    7    9 am    
   15    9   10 1     
   16   10   11 1     
   17   10   29 1     
   18   10   30 1     
   19   11   12 2     
   20   11   13 am    
   21   13   14 1     
   22   13   31 1     
   23   14   15 1     
   24   14   20 1     
   25   14   32 1     
   26   15   19 1     
   27   15   16 1     
   28   15   33 1     
   29   16   17 1     
   30   16   34 1     
   31   16   35 1     
   32   17   18 1     
   33   17   36 1     
   34   17   37 1     
   35   18   19 1     
   36   18   38 1     
   37   18   39 1     
   38   19   40 1     
   39   19   41 1     
   40   20   21 1     
   41   20   22 1     
   42   20   23 1     
   43    8   42 1     
   44    8   43 1     
   45   12   44 1     
   46   12   45 1     
@<TRIPOS>SUBSTRUCTURE
      1 S1             1
@<TRIPOS>SET
LONE_PAIRS      STATIC     ATOMS    <user>   **** ""
5 5 42 43 44 45
DONOR_HYDROGENS      STATIC     ATOMS    <user>   **** ""
1 31
ATOM$BLUE        STATIC     ATOMS    COLORGROUP SYSTEM
5 5 42 43 44 45
ATOM$RED        STATIC     ATOMS    COLORGROUP SYSTEM
1 31
