AV-unprocessed.smi:2570|AV-procd|sdf|10106|dock4
  -GOLD-   2272014123D 1   1.00000     0.00000
 Structure written by MMmdl.
 32 33  0  0  0  0  0  0  0  0  1 V2000
  147.5515  137.6829  154.2420 C   0  0  0  0  0  0  0  0  0  0  0  0
  148.3534  137.6597  155.4214 O   0  0  0  0  0  0  0  0  0  0  0  0
  149.6679  138.0735  155.2914 C   0  0  0  0  0  0  0  0  0  0  0  0
  150.5853  137.2324  154.5516 C   0  0  0  0  0  0  0  0  0  0  0  0
  151.8701  137.6256  154.4156 C   0  0  0  0  0  0  0  0  0  0  0  0
  152.3581  138.8766  154.9956 C   0  0  0  0  0  0  0  0  0  0  0  0
  153.5227  139.2605  154.8885 O   0  0  0  0  0  0  0  0  0  0  0  0
  151.4019  139.5807  155.6716 N   0  0  0  0  0  0  0  0  0  0  0  0
  151.7116  140.8601  156.3214 C   0  0  0  0  0  0  0  0  0  0  0  0
  151.5019  140.8102  157.8513 C   0  0  2  0  0  0  0  0  0  0  0  0
  150.2169  140.2867  158.1253 O   0  0  0  0  0  0  0  0  0  0  0  0
  151.6937  142.1844  158.4805 C   0  0  0  0  0  0  0  0  0  0  0  0
  150.9172  143.2708  158.0214 C   0  0  0  0  0  0  0  0  0  0  0  0
  151.0715  144.5492  158.5913 C   0  0  0  0  0  0  0  0  0  0  0  0
  152.0033  144.7512  159.6266 C   0  0  0  0  0  0  0  0  0  0  0  0
  152.1529  145.9806  160.1737 F   0  0  0  0  0  0  0  0  0  0  0  0
  152.7778  143.6726  160.0938 C   0  0  0  0  0  0  0  0  0  0  0  0
  152.6242  142.3923  159.5267 C   0  0  0  0  0  0  0  0  0  0  0  0
  153.3739  141.3668  159.9981 F   0  0  0  0  0  0  0  0  0  0  0  0
  150.0832  139.1848  155.8121 N   0  0  0  0  0  0  0  0  0  0  0  0
  146.5489  137.3319  154.4857 H   0  0  0  0  0  0  0  0  0  0  0  0
  147.9477  137.0231  153.4680 H   0  0  0  0  0  0  0  0  0  0  0  0
  147.4539  138.6916  153.8368 H   0  0  0  0  0  0  0  0  0  0  0  0
  150.2361  136.3067  154.1183 H   0  0  0  0  0  0  0  0  0  0  0  0
  152.5575  137.0011  153.8642 H   0  0  0  0  0  0  0  0  0  0  0  0
  152.7532  141.1063  156.1062 H   0  0  0  0  0  0  0  0  0  0  0  0
  151.1327  141.6739  155.8801 H   0  0  0  0  0  0  0  0  0  0  0  0
  152.2256  140.1305  158.3024 H   0  0  0  0  0  0  0  0  0  0  0  0
  150.1119  139.4814  157.6420 H   0  0  0  0  0  0  0  0  0  0  0  0
  150.1967  143.1283  157.2293 H   0  0  0  0  0  0  0  0  0  0  0  0
  150.4738  145.3749  158.2341 H   0  0  0  0  0  0  0  0  0  0  0  0
  153.4902  143.8267  160.8908 H   0  0  0  0  0  0  0  0  0  0  0  0
  1  2  1  0  0  0  0
  1 21  1  0  0  0  0
  1 22  1  0  0  0  0
  1 23  1  0  0  0  0
  2  3  1  0  0  0  0
  3 20  2  0  0  0  0
  3  4  1  0  0  0  0
  4  5  2  0  0  0  0
  4 24  1  0  0  0  0
  5  6  1  0  0  0  0
  5 25  1  0  0  0  0
  6  7  2  0  0  0  0
  6  8  1  0  0  0  0
  8  9  1  0  0  0  0
  8 20  1  0  0  0  0
  9 10  1  0  0  0  0
  9 26  1  0  0  0  0
  9 27  1  0  0  0  0
 10 11  1  0  0  0  0
 10 12  1  0  0  0  0
 10 28  1  0  0  0  0
 11 29  1  0  0  0  0
 12 18  1  0  0  0  0
 12 13  2  0  0  0  0
 13 14  1  0  0  0  0
 13 30  1  0  0  0  0
 14 15  2  0  0  0  0
 14 31  1  0  0  0  0
 15 16  1  0  0  0  0
 15 17  1  0  0  0  0
 17 18  2  0  0  0  0
 17 32  1  0  0  0  0
 18 19  1  0  0  0  0
M  END
> <s_m_source_file>
AV-unprocessed.smi

> <i_m_source_file_index>
2570

> <i_lp_mmshare_version>
43012

> <i_f3d_flags>
0

> <s_epik_input>
W0NIM11PYzFbY0hdW2NIXWMoPU8pbihuMSlbQ0gyXVtDQEhdKFtPSF0pYzJbY0hdW2NIXWMoRilbY0hdYzJG

> <s_epik_cmdline>
J2VwaWtfcHl0aG9uJywgJy1waCcsICc3LjAnLCAnLXRuJywgJzgnLCAnLW1hJywgJzIwMCcsICctbWV0YWxfYmluZGluZycsICctaW1hZScsICc8aW5maWxlLm1hZT4nLCAnLW9tYWUnLCAnPG91dGZpbGUubWFlPic=

> <r_lp_tautomer_probability>
1

> <r_epik_Ionization_Penalty>
6.40224e-06

> <r_epik_Ionization_Penalty_Charging>
4.38647e-06

> <r_epik_Ionization_Penalty_Neutral>
2.01577e-06

> <r_epik_State_Penalty>
-0

> <r_epik_Charging_Adjusted_Penalty>
4.38647e-06

> <i_epik_Tot_Q>
0

> <i_epik_Tot_abs_Q>
0

> <r_epik_Metal_State_Penalty>
-0

> <b_epik_Metal_Only>
0

> <s_lp_Force_Field>
OPLS_2005

> <r_lp_Energy>
30.8929

> <b_lp_Chiralities_Consistent>
1

> <s_lp_Variant>
AV-unprocessed.smi:2570-1

> <Gold.Version>
5.8.1

> <Gold.Id.Protein>
6NUR|6NUR_protein|mol2

> <Gold.PLP.Fitness>
45.7238

> <Gold.PLP.PLP>
-43.0532

> <Gold.PLP.part.hbond>
-1.9199

> <Gold.PLP.part.metal>
0.0000

> <Gold.PLP.part.buried>
-4.0593

> <Gold.PLP.part.nonpolar>
-38.3408

> <Gold.PLP.part.repulsive>
0.0677

> <Gold.PLP.ligand.clash>
0.0000

> <Gold.PLP.ligand.torsion>
0.1780

> <Gold.PLP.Chemscore.Hbond>
1.0000

> <Gold.PLP.Chemscore.CHOScore>
0.0000

> <Gold.PLP.Chemscore.Metal>
0.0000

> <Gold.Chemscore.Hbonds>
donor molecule, donor type, donor heavy atom, donor atom, acceptor molecule, acceptor atom, score
      P1  H  7997  8010       L1     7  1.00

> <Gold.PLP.Chemscore.Internal.Correction>
0.0266

> <Gold.Rescore>
     Score         DG    S(hbond)    S(metal)    S(lipo)     H(rot)  DE(clash)    DE(int)     intcor
     11.17     -13.33       0.99        0.00      92.58       2.45       0.04       2.12       ----

> <Gold.Chemscore.Fitness>
11.1701

> <Gold.Chemscore.DG>
-13.3301

> <Gold.Chemscore.ZeroCoef>
-5.4800

> <Gold.Chemscore.Hbond>
0.9876

> <Gold.Chemscore.Metal>
0.0000

> <Gold.Chemscore.Lipo>
92.5814

> <Gold.Chemscore.Internal_Hbond>
0.0000

> <Gold.Chemscore.DEClash>
0.0445

> <Gold.Chemscore.DEInternal>
2.1155

> <Gold.Chemscore.Rot>
2.4533

> <Gold.Chemscore.Internal.Correction>
   9.000000E+99

> <Gold.Chemscore.Hbonds>
donor molecule, donor type, donor heavy atom, donor atom, acceptor molecule, acceptor atom, score
      P1  H  7997  8010       L1     7  0.99

> <Gold.Chemscore.Hbond.Weighted>
-3.2985

> <Gold.Chemscore.Metal.Weighted>
-0.0000

> <Gold.Chemscore.Lipo.Weighted>
-10.8320

> <Gold.Chemscore.Internal_Hbond.Weighted>
0.0000

> <Gold.Chemscore.DEClash.Weighted>
0.0445

> <Gold.Chemscore.DEInternal.Weighted>
2.1155

> <Gold.Chemscore.Rot.Weighted>
6.2804

> <Gold.Chemscore.Internal.Correction.Weighted>
   9.000000E+99

> <Gold.Protein.RotatedTorsions>
[ 6907 6896 6895 6894 ] final  128.31 input  -60.11 | X-H torsion
[ 7974 7965 7964 7962 ] final -135.14 input  175.53 | X-H torsion
[ 8008 7997 7996 7995 ] final  105.19 input   59.86 | X-H torsion
[ 10167 10162 10161 10158 ] final   51.70 input  -65.29 | X-H torsion
[ 10718 10713 10712 10709 ] final    9.51 input   66.30 | X-H torsion
[ 10763 10752 10751 10750 ] final   71.62 input  -60.55 | X-H torsion
[ 11005 11000 10999 10996 ] final -123.11 input  -57.11 | X-H torsion

> <Gold.Protein.ActiveResidues>
 VAL166  LYS551  ARG553  GLY616  TRP617  ASP618  TYR619  PRO620  LYS621  CYS622 
 ASP623  PHE694  ASN695  SER759  ASP760  ASP761  ALA762  ILE779  LEU786  VAL792 
 PHE793  MET794  SER795  GLU796  ALA797  LYS798  CYS799  TRP800  GLU811  SER814 

> <Gold.Protein.RotatedAtoms>
  152.3731  133.6445  159.6102 H   0  0  0  0  0  0  0  0  0  0  0  0  # atno 6907 bound_to 6896
  150.7684  133.9237  159.3414 H   0  0  0  0  0  0  0  0  0  0  0  0  # atno 6908 bound_to 6896
  151.7056  135.0923  160.0310 H   0  0  0  0  0  0  0  0  0  0  0  0  # atno 6909 bound_to 6896
  144.9040  140.6809  143.5067 H   0  0  0  0  0  0  0  0  0  0  0  0  # atno 7974 bound_to 7965
  156.1638  140.3135  155.8853 H   0  0  0  0  0  0  0  0  0  0  0  0  # atno 8008 bound_to 7997
  155.3728  140.0483  157.3062 H   0  0  0  0  0  0  0  0  0  0  0  0  # atno 8009 bound_to 7997
  154.5172  140.2185  155.9054 H   0  0  0  0  0  0  0  0  0  0  0  0  # atno 8010 bound_to 7997
  140.2592  144.3392  150.6323 H   0  0  0  0  0  0  0  0  0  0  0  0  # atno 10167 bound_to 10162
  156.9674  130.5956  149.5666 H   0  0  0  0  0  0  0  0  0  0  0  0  # atno 10718 bound_to 10713
  153.0410  135.5130  154.7620 H   0  0  0  0  0  0  0  0  0  0  0  0  # atno 10763 bound_to 10752
  154.6558  135.2931  154.9931 H   0  0  0  0  0  0  0  0  0  0  0  0  # atno 10764 bound_to 10752
  154.0800  135.6665  153.4889 H   0  0  0  0  0  0  0  0  0  0  0  0  # atno 10765 bound_to 10752
  140.9944  134.0493  157.3615 H   0  0  0  0  0  0  0  0  0  0  0  0  # atno 11005 bound_to 11000
  145.3567  139.1692  143.4405 LP  0  0  0  0  0  0  0  0  0  0  0  0  # atno 17320 bound_to 7965
  146.3124  140.3625  142.8666 LP  0  0  0  0  0  0  0  0  0  0  0  0  # atno 17321 bound_to 7965
  140.5979  143.2167  151.7128 LP  0  0  0  0  0  0  0  0  0  0  0  0  # atno 17342 bound_to 10162
  139.5022  144.3838  152.0349 LP  0  0  0  0  0  0  0  0  0  0  0  0  # atno 17343 bound_to 10162
  156.0297  130.5389  150.8501 LP  0  0  0  0  0  0  0  0  0  0  0  0  # atno 17370 bound_to 10713
  157.5616  131.0946  150.9550 LP  0  0  0  0  0  0  0  0  0  0  0  0  # atno 17371 bound_to 10713
  139.9008  135.0163  156.7257 LP  0  0  0  0  0  0  0  0  0  0  0  0  # atno 17394 bound_to 11000
  140.6989  133.9324  155.8012 LP  0  0  0  0  0  0  0  0  0  0  0  0  # atno 17395 bound_to 11000

$$$$
