#       Name:                AV-unprocessed.smi:2051
#       Creating user name   scv26
#       Creation time:       Fri Mar 27 10:59:21 2020


#       File generated by GOLD software.
#

@<TRIPOS>MOLECULE
AV-unprocessed.smi:2051
    39    40     1
SMALL
NO_CHARGES


@<TRIPOS>ATOM
      1 ****        -0.3507   1.2191  -0.0415 O.2            1 S1                 0.0000
      2 ****         0.3482   0.4398  -0.6915 C.2            1 S1                 0.0000
      3 ****         1.8638   0.6519  -0.8216 C.3            1 S1                 0.0000
      4 ****         2.3238   1.9557  -0.3144 N.am           1 S1                 0.0000
      5 ****         2.8199   1.9903   1.0041 C.2            1 S1                 0.0000
      6 ****         3.2630   3.1257   1.5668 C.2            1 S1                 0.0000
      7 ****         3.2228   4.3370   0.7824 C.2            1 S1                 0.0000
      8 ****         2.7474   4.3157  -0.4788 C.2            1 S1                 0.0000
      9 ****         2.2589   3.0773  -1.0967 C.2            1 S1                 0.0000
     10 ****         1.8187   3.0501  -2.2463 O.2            1 S1                 0.0000
     11 ****        -0.1442  -0.6413  -1.3142 N.am           1 S1                 0.0000
     12 ****        -1.5457  -1.0446  -1.3187 C.3            1 S1                 0.0000
     13 ****        -1.9437  -1.7395  -0.0056 C.3            1 S1                 0.0000
     14 ****        -3.4071  -2.1798   0.0432 C.3            1 S1                 0.0000
     15 ****        -3.3958  -3.3893   0.9680 C.3            1 S1                 0.0000
     16 ****        -1.9097  -3.6841   1.1840 C.3            1 S1                 0.0000
     17 ****        -1.2485  -2.9665   0.1531 O.3            1 S1                 0.0000
     18 ****         2.3675  -0.1592  -0.2941 H              1 S1                 0.0000
     19 ****         2.1518   0.5314  -1.8677 H              1 S1                 0.0000
     20 ****         2.8095   1.0436   1.5247 H              1 S1                 0.0000
     21 ****         3.6362   3.1333   2.5803 H              1 S1                 0.0000
     22 ****         3.5749   5.2646   1.2089 H              1 S1                 0.0000
     23 ****         2.7245   5.2317  -1.0506 H              1 S1                 0.0000
     24 ****         0.5000  -1.2324  -1.8192 H              1 S1                 0.0000
     25 ****        -2.1790  -0.1729  -1.4915 H              1 S1                 0.0000
     26 ****        -1.7057  -1.7163  -2.1626 H              1 S1                 0.0000
     27 ****        -1.7290  -1.0977   0.8512 H              1 S1                 0.0000
     28 ****        -4.0660  -1.3848   0.3933 H              1 S1                 0.0000
     29 ****        -3.7479  -2.4840  -0.9474 H              1 S1                 0.0000
     30 ****        -3.8975  -3.1861   1.9146 H              1 S1                 0.0000
     31 ****        -3.9001  -4.2333   0.4958 H              1 S1                 0.0000
     32 ****        -1.5800  -3.3053   2.1527 H              1 S1                 0.0000
     33 ****        -1.6807  -4.7490   1.1390 H              1 S1                 0.0000
     34 ****         0.0674   2.0059   0.4125 LP             1 S1                 0.0000
     35 ****        -1.3360   1.0647   0.0320 LP             1 S1                 0.0000
     36 ****         1.4937   2.1888  -2.6370 LP             1 S1                 0.0000
     37 ****         1.7862   3.8892  -2.7892 LP             1 S1                 0.0000
     38 ****        -0.2979  -2.7925   0.4103 LP             1 S1                 0.0000
     39 ****        -1.2729  -3.4885  -0.6995 LP             1 S1                 0.0000
@<TRIPOS>BOND
    1    1    2 2     
    2    2    3 1     
    3    2   11 am    
    4    3    4 1     
    5    3   18 1     
    6    3   19 1     
    7    4    9 am    
    8    4    5 1     
    9    5    6 2     
   10    5   20 1     
   11    6    7 1     
   12    6   21 1     
   13    7    8 2     
   14    7   22 1     
   15    8    9 1     
   16    8   23 1     
   17    9   10 2     
   18   11   12 1     
   19   11   24 1     
   20   12   13 1     
   21   12   25 1     
   22   12   26 1     
   23   13   17 1     
   24   13   14 1     
   25   13   27 1     
   26   14   15 1     
   27   14   28 1     
   28   14   29 1     
   29   15   16 1     
   30   15   30 1     
   31   15   31 1     
   32   16   17 1     
   33   16   32 1     
   34   16   33 1     
   35    1   34 1     
   36    1   35 1     
   37   10   36 1     
   38   10   37 1     
   39   17   38 1     
   40   17   39 1     
@<TRIPOS>SUBSTRUCTURE
      1 S1             1
@<TRIPOS>SET
LONE_PAIRS      STATIC     ATOMS    <user>   **** ""
6 34 35 36 37 38 39
DONOR_HYDROGENS      STATIC     ATOMS    <user>   **** ""
1 24
ATOM$BLUE        STATIC     ATOMS    COLORGROUP SYSTEM
6 34 35 36 37 38 39
ATOM$RED        STATIC     ATOMS    COLORGROUP SYSTEM
1 24
