AV-unprocessed.smi:81|AV-procd|sdf|791|dock3
  -GOLD-   2262017163D 1   1.00000     0.00000
 Structure written by MMmdl.
 64 67  0  0  0  0  0  0  0  0  2 V2000
  151.1382  140.8551  156.4962 C   0  0  0  0  0  0  0  0  0  0  0  0
  149.7454  141.4986  156.3980 C   0  0  0  0  0  0  0  0  0  0  0  0
  149.3560  142.0902  157.7612 C   0  0  0  0  0  0  0  0  0  0  0  0
  148.6485  140.5142  155.9191 C   0  0  0  0  0  0  0  0  0  0  0  0
  148.8868  139.8773  154.6157 N   0  0  0  0  0  0  0  0  0  0  0  0
  149.7742  138.8566  154.7112 C   0  0  0  0  0  0  0  0  0  0  0  0
  151.0811  139.0600  154.3969 N   0  0  0  0  0  0  0  0  0  0  0  0
  151.9515  138.0486  154.4717 C   0  0  0  0  0  0  0  0  0  0  0  0
  151.7296  136.7813  154.8274 N   0  0  0  0  0  0  0  0  0  0  0  0
  150.4183  136.5754  155.1417 C   0  0  0  0  0  0  0  0  0  0  0  0
  149.3846  137.5516  155.1137 C   0  0  0  0  0  0  0  0  0  0  0  0
  148.1800  136.9850  155.5096 N   0  0  0  0  0  0  0  0  0  0  0  0
  148.4821  135.7375  155.7460 C   0  0  0  0  0  0  0  0  0  0  0  0
  149.8016  135.4016  155.5384 N   0  0  0  0  0  0  0  0  0  0  0  0
  150.4024  134.0875  155.7081 C   0  0  0  0  0  0  0  0  0  0  0  0
  149.6398  132.9621  154.9660 C   0  0  2  0  0  0  0  0  0  0  0  0
  150.4003  131.7694  155.0665 O   0  0  0  0  0  0  0  0  0  0  0  0
  149.4451  133.2799  153.4798 C   0  0  0  0  0  0  0  0  0  0  0  0
  147.9441  133.5049  153.3427 C   0  0  0  0  0  0  0  0  0  0  0  0
  147.4033  132.6207  154.3078 O   0  0  0  0  0  0  0  0  0  0  0  0
  148.1908  132.7579  155.4812 C   0  0  1  0  0  0  0  0  0  0  0  0
  147.9443  131.5820  156.4410 C   0  0  0  0  0  0  0  0  0  0  0  0
  147.8435  139.7801  153.5766 C   0  0  2  0  0  0  0  0  0  0  0  0
  147.3402  141.1643  153.0911 C   0  0  0  0  0  0  0  0  0  0  0  0
  146.5811  141.9163  154.1996 C   0  0  0  0  0  0  0  0  0  0  0  0
  145.4308  141.1193  154.6927 N   0  3  2  0  0  0  0  0  0  0  0  0
  144.6343  141.8480  155.7027 C   0  0  0  0  0  0  0  0  0  0  0  0
  145.8379  139.7708  155.1596 C   0  0  0  0  0  0  0  0  0  0  0  0
  146.5934  139.0075  154.0556 C   0  0  0  0  0  0  0  0  0  0  0  0
  151.1288  139.9914  157.1611 H   0  0  0  0  0  0  0  0  0  0  0  0
  151.8676  141.5638  156.8890 H   0  0  0  0  0  0  0  0  0  0  0  0
  151.5096  140.5287  155.5277 H   0  0  0  0  0  0  0  0  0  0  0  0
  149.8079  142.3368  155.7045 H   0  0  0  0  0  0  0  0  0  0  0  0
  149.2731  141.3137  158.5223 H   0  0  0  0  0  0  0  0  0  0  0  0
  148.3970  142.6063  157.7066 H   0  0  0  0  0  0  0  0  0  0  0  0
  150.0952  142.8152  158.1033 H   0  0  0  0  0  0  0  0  0  0  0  0
  148.4650  139.7588  156.6815 H   0  0  0  0  0  0  0  0  0  0  0  0
  147.7039  141.0553  155.8512 H   0  0  0  0  0  0  0  0  0  0  0  0
  152.9707  138.2881  154.2065 H   0  0  0  0  0  0  0  0  0  0  0  0
  147.7434  135.0190  156.0714 H   0  0  0  0  0  0  0  0  0  0  0  0
  151.4340  134.1344  155.3570 H   0  0  0  0  0  0  0  0  0  0  0  0
  150.4548  133.8712  156.7761 H   0  0  0  0  0  0  0  0  0  0  0  0
  150.7573  131.5716  154.2142 H   0  0  0  0  0  0  0  0  0  0  0  0
  150.0210  134.1416  153.1404 H   0  0  0  0  0  0  0  0  0  0  0  0
  149.7330  132.4329  152.8548 H   0  0  0  0  0  0  0  0  0  0  0  0
  147.6770  134.5329  153.5933 H   0  0  0  0  0  0  0  0  0  0  0  0
  147.5744  133.2857  152.3410 H   0  0  0  0  0  0  0  0  0  0  0  0
  147.8488  133.6740  155.9642 H   0  0  0  0  0  0  0  0  0  0  0  0
  148.5624  131.6654  157.3351 H   0  0  0  0  0  0  0  0  0  0  0  0
  148.1603  130.6238  155.9684 H   0  0  0  0  0  0  0  0  0  0  0  0
  146.9031  131.5608  156.7621 H   0  0  0  0  0  0  0  0  0  0  0  0
  148.2735  139.2625  152.7198 H   0  0  0  0  0  0  0  0  0  0  0  0
  148.1500  141.7858  152.7108 H   0  0  0  0  0  0  0  0  0  0  0  0
  146.6717  141.0210  152.2409 H   0  0  0  0  0  0  0  0  0  0  0  0
  147.2507  142.1489  155.0293 H   0  0  0  0  0  0  0  0  0  0  0  0
  146.2203  142.8689  153.8102 H   0  0  0  0  0  0  0  0  0  0  0  0
  145.2253  142.0478  156.5974 H   0  0  0  0  0  0  0  0  0  0  0  0
  143.7577  141.2682  155.9931 H   0  0  0  0  0  0  0  0  0  0  0  0
  144.2851  142.8007  155.3032 H   0  0  0  0  0  0  0  0  0  0  0  0
  146.4581  139.8632  156.0527 H   0  0  0  0  0  0  0  0  0  0  0  0
  144.9513  139.2058  155.4494 H   0  0  0  0  0  0  0  0  0  0  0  0
  145.9226  138.8578  153.2085 H   0  0  0  0  0  0  0  0  0  0  0  0
  146.8464  138.0044  154.3953 H   0  0  0  0  0  0  0  0  0  0  0  0
  144.8236  140.9745  153.8986 H   0  0  0  0  0  0  0  0  0  0  0  0
  1  2  1  0  0  0  0
  1 30  1  0  0  0  0
  1 31  1  0  0  0  0
  1 32  1  0  0  0  0
  2  3  1  0  0  0  0
  2  4  1  0  0  0  0
  2 33  1  0  0  0  0
  3 34  1  0  0  0  0
  3 35  1  0  0  0  0
  3 36  1  0  0  0  0
  4  5  1  0  0  0  0
  4 37  1  0  0  0  0
  4 38  1  0  0  0  0
  5  6  1  0  0  0  0
  5 23  1  0  0  0  0
  6 11  1  0  0  0  0
  6  7  2  0  0  0  0
  7  8  1  0  0  0  0
  8  9  2  0  0  0  0
  8 39  1  0  0  0  0
  9 10  1  0  0  0  0
 10 14  1  0  0  0  0
 10 11  2  0  0  0  0
 11 12  1  0  0  0  0
 12 13  2  0  0  0  0
 13 14  1  0  0  0  0
 13 40  1  0  0  0  0
 14 15  1  0  0  0  0
 15 16  1  0  0  0  0
 15 41  1  0  0  0  0
 15 42  1  0  0  0  0
 16 21  1  0  0  0  0
 16 17  1  0  0  0  0
 16 18  1  0  0  0  0
 17 43  1  0  0  0  0
 18 19  1  0  0  0  0
 18 44  1  0  0  0  0
 18 45  1  0  0  0  0
 19 20  1  0  0  0  0
 19 46  1  0  0  0  0
 19 47  1  0  0  0  0
 20 21  1  0  0  0  0
 21 22  1  0  0  0  0
 21 48  1  0  0  0  0
 22 49  1  0  0  0  0
 22 50  1  0  0  0  0
 22 51  1  0  0  0  0
 23 29  1  0  0  0  0
 23 24  1  0  0  0  0
 23 52  1  0  0  0  0
 24 25  1  0  0  0  0
 24 53  1  0  0  0  0
 24 54  1  0  0  0  0
 25 26  1  0  0  0  0
 25 55  1  0  0  0  0
 25 56  1  0  0  0  0
 26 27  1  0  0  0  0
 26 28  1  0  0  0  0
 26 64  1  0  0  0  0
 27 57  1  0  0  0  0
 27 58  1  0  0  0  0
 27 59  1  0  0  0  0
 28 29  1  0  0  0  0
 28 60  1  0  0  0  0
 28 61  1  0  0  0  0
 29 62  1  0  0  0  0
 29 63  1  0  0  0  0
M  CHG  1  26   1
M  END
> <s_m_source_file>
AV-unprocessed.smi

> <i_m_source_file_index>
81

> <i_lp_mmshare_version>
43012

> <i_f3d_flags>
0

> <s_epik_input>
W0NIMl0xW0NIMl1OKFtDSDNdKVtDSDJdW0NIMl1bQ0hdMU4oW0NIMl1bQ0hdKFtDSDNdKVtDSDNdKWMobltjSF1uMiljKGMyMyluW2NIXW4zW0NIMl1bQ0BAXTQoW09IXSlbQ0gyXVtDSDJdT1tDQEhdNFtDSDNd

> <s_epik_cmdline>
J2VwaWtfcHl0aG9uJywgJy1waCcsICc3LjAnLCAnLXRuJywgJzgnLCAnLW1hJywgJzIwMCcsICctbWV0YWxfYmluZGluZycsICctaW1hZScsICc8aW5maWxlLm1hZT4nLCAnLW9tYWUnLCAnPG91dGZpbGUubWFlPic=

> <r_lp_tautomer_probability>
1

> <r_epik_Ionization_Penalty>
0.00272708

> <r_epik_Ionization_Penalty_Charging>
0.00158983

> <r_epik_Ionization_Penalty_Neutral>
0.00113725

> <r_epik_State_Penalty>
-0

> <r_epik_Charging_Adjusted_Penalty>
0.00158983

> <i_epik_Tot_Q>
1

> <i_epik_Tot_abs_Q>
1

> <r_epik_Metal_State_Penalty>
-0

> <b_epik_Metal_Only>
0

> <s_lp_Force_Field>
OPLS_2005

> <r_lp_Energy>
49.6566

> <b_lp_Chiralities_Consistent>
1

> <s_lp_Variant>
AV-unprocessed.smi:81-6

> <Gold.Version>
5.8.1

> <Gold.Id.Protein>
6NUR|6NUR_protein|mol2

> <Gold.PLP.Fitness>
47.4373

> <Gold.PLP.PLP>
-38.2044

> <Gold.PLP.part.hbond>
-3.0000

> <Gold.PLP.part.metal>
0.0000

> <Gold.PLP.part.buried>
-3.8589

> <Gold.PLP.part.nonpolar>
-31.7970

> <Gold.PLP.part.repulsive>
0.4086

> <Gold.PLP.ligand.clash>
0.0000

> <Gold.PLP.ligand.torsion>
2.0487

> <Gold.PLP.Chemscore.Hbond>
4.0000

> <Gold.PLP.Chemscore.CHOScore>
0.0000

> <Gold.PLP.Chemscore.Metal>
0.0000

> <Gold.Chemscore.Hbonds>
donor molecule, donor type, donor heavy atom, donor atom, acceptor molecule, acceptor atom, score
      L1  H    26    64       P1 10175  2.00
      P1  H  7989  7998       L1     7  0.86
      P1  H 10752 10765       L1     9  1.00

> <Gold.PLP.Chemscore.Internal.Correction>
1.3302

> <Gold.Rescore>
     Score         DG    S(hbond)    S(metal)    S(lipo)     H(rot)  DE(clash)    DE(int)     intcor
     12.58     -18.14       2.86        0.00      77.28       2.32       1.46       4.11       ----

> <Gold.Chemscore.Fitness>
12.5757

> <Gold.Chemscore.DG>
-18.1404

> <Gold.Chemscore.ZeroCoef>
-5.4800

> <Gold.Chemscore.Hbond>
2.8587

> <Gold.Chemscore.Metal>
0.0000

> <Gold.Chemscore.Lipo>
77.2841

> <Gold.Chemscore.Internal_Hbond>
0.0000

> <Gold.Chemscore.DEClash>
1.4562

> <Gold.Chemscore.DEInternal>
4.1085

> <Gold.Chemscore.Rot>
2.3163

> <Gold.Chemscore.Internal.Correction>
   9.000000E+99

> <Gold.Chemscore.Hbonds>
donor molecule, donor type, donor heavy atom, donor atom, acceptor molecule, acceptor atom, score
      L1  H    26    64       P1 10175  0.85
      P1  H  7989  7998       L1     7  0.79
      P1  H 10752 10765       L1     9  0.95

> <Gold.Chemscore.Hbond.Weighted>
-9.5479

> <Gold.Chemscore.Metal.Weighted>
-0.0000

> <Gold.Chemscore.Lipo.Weighted>
-9.0422

> <Gold.Chemscore.Internal_Hbond.Weighted>
0.0000

> <Gold.Chemscore.DEClash.Weighted>
1.4562

> <Gold.Chemscore.DEInternal.Weighted>
4.1085

> <Gold.Chemscore.Rot.Weighted>
5.9297

> <Gold.Chemscore.Internal.Correction.Weighted>
   9.000000E+99

> <Gold.Protein.RotatedTorsions>
[ 6907 6896 6895 6894 ] final  -98.48 input  -60.11 | X-H torsion
[ 7974 7965 7964 7962 ] final  103.68 input  175.53 | X-H torsion
[ 8008 7997 7996 7995 ] final -102.13 input   59.86 | X-H torsion
[ 10167 10162 10161 10158 ] final   35.19 input  -65.29 | X-H torsion
[ 10718 10713 10712 10709 ] final   15.57 input   66.30 | X-H torsion
[ 10763 10752 10751 10750 ] final  173.71 input  -60.55 | X-H torsion
[ 11005 11000 10999 10996 ] final   61.97 input  -57.11 | X-H torsion

> <Gold.Protein.ActiveResidues>
 VAL166  LYS551  ARG553  GLY616  TRP617  ASP618  TYR619  PRO620  LYS621  CYS622 
 ASP623  PHE694  ASN695  SER759  ASP760  ASP761  ALA762  ILE779  LEU786  VAL792 
 PHE793  MET794  SER795  GLU796  ALA797  LYS798  CYS799  TRP800  GLU811  SER814 

> <Gold.Protein.RotatedAtoms>
  150.7048  134.1188  159.4026 H   0  0  0  0  0  0  0  0  0  0  0  0  # atno 6907 bound_to 6896
  151.9175  135.0310  160.0528 H   0  0  0  0  0  0  0  0  0  0  0  0  # atno 6908 bound_to 6896
  152.2284  133.5003  159.5239 H   0  0  0  0  0  0  0  0  0  0  0  0  # atno 6909 bound_to 6896
  145.3427  139.2458  143.3601 H   0  0  0  0  0  0  0  0  0  0  0  0  # atno 7974 bound_to 7965
  154.8523  140.0430  157.1612 H   0  0  0  0  0  0  0  0  0  0  0  0  # atno 8008 bound_to 7997
  154.8929  140.2989  155.5340 H   0  0  0  0  0  0  0  0  0  0  0  0  # atno 8009 bound_to 7997
  156.2996  140.2390  156.3947 H   0  0  0  0  0  0  0  0  0  0  0  0  # atno 8010 bound_to 7997
  140.4245  144.1413  150.6151 H   0  0  0  0  0  0  0  0  0  0  0  0  # atno 10167 bound_to 10162
  157.0555  130.6287  149.5776 H   0  0  0  0  0  0  0  0  0  0  0  0  # atno 10718 bound_to 10713
  154.4438  135.2763  155.1829 H   0  0  0  0  0  0  0  0  0  0  0  0  # atno 10763 bound_to 10752
  154.3684  135.6114  153.5730 H   0  0  0  0  0  0  0  0  0  0  0  0  # atno 10764 bound_to 10752
  152.9842  135.5851  154.4771 H   0  0  0  0  0  0  0  0  0  0  0  0  # atno 10765 bound_to 10752
  140.0124  134.6276  155.9760 H   0  0  0  0  0  0  0  0  0  0  0  0  # atno 11005 bound_to 11000
  146.3001  140.4027  142.8707 LP  0  0  0  0  0  0  0  0  0  0  0  0  # atno 17320 bound_to 7965
  144.8778  140.7360  143.6006 LP  0  0  0  0  0  0  0  0  0  0  0  0  # atno 17321 bound_to 7965
  140.4497  143.2492  151.9364 LP  0  0  0  0  0  0  0  0  0  0  0  0  # atno 17342 bound_to 10162
  139.4783  144.5574  151.8292 LP  0  0  0  0  0  0  0  0  0  0  0  0  # atno 17343 bound_to 10162
  155.9994  130.5070  150.7607 LP  0  0  0  0  0  0  0  0  0  0  0  0  # atno 17370 bound_to 10713
  157.4996  131.0917  151.0330 LP  0  0  0  0  0  0  0  0  0  0  0  0  # atno 17371 bound_to 10713
  141.1720  133.6538  156.4687 LP  0  0  0  0  0  0  0  0  0  0  0  0  # atno 17394 bound_to 11000
  140.4531  134.6911  157.5049 LP  0  0  0  0  0  0  0  0  0  0  0  0  # atno 17395 bound_to 11000

$$$$
