AV-unprocessed.smi:3229|AV-procd|sdf|12328|dock1
  -GOLD-   2272018173D 1   1.00000     0.00000
 Structure written by MMmdl.
 35 36  0  0  0  0  0  0  0  0  1 V2000
  153.8915  142.8669  163.6924 C   0  0  0  0  0  0  0  0  0  0  0  0
  153.4915  142.0743  162.4431 C   0  0  0  0  0  0  0  0  0  0  0  0
  152.8588  142.9192  161.3869 C   0  0  0  0  0  0  0  0  0  0  0  0
  152.2036  144.1148  161.5510 C   0  0  0  0  0  0  0  0  0  0  0  0
  151.7188  144.6617  160.3609 N   0  0  0  0  0  0  0  0  0  0  0  0
  152.0058  143.9055  159.2980 C   0  0  0  0  0  0  0  0  0  0  0  0
  151.5790  144.2368  157.9041 C   0  0  0  0  0  0  0  0  0  0  0  0
  151.7810  143.0844  156.9065 C   0  0  0  0  0  0  0  0  0  0  0  0
  150.5332  142.7156  156.2497 N   0  0  0  0  0  0  0  0  0  0  0  0
  150.3311  141.5656  155.5918 C   0  0  0  0  0  0  0  0  0  0  0  0
  151.1929  140.6928  155.4816 O   0  0  0  0  0  0  0  0  0  0  0  0
  148.9405  141.3726  154.9779 C   0  0  1  0  0  0  0  0  0  0  0  0
  148.7229  140.0109  154.3109 C   0  0  0  0  0  0  0  0  0  0  0  0
  147.2239  139.8541  154.4320 C   0  0  0  0  0  0  0  0  0  0  0  0
  146.9498  140.4620  155.8045 C   0  0  0  0  0  0  0  0  0  0  0  0
  147.9626  141.4435  156.0123 O   0  0  0  0  0  0  0  0  0  0  0  0
  152.8831  142.4372  159.7098 S   0  0  0  0  0  0  0  0  0  0  0  0
  154.3556  142.2159  164.4336 H   0  0  0  0  0  0  0  0  0  0  0  0
  153.0239  143.3353  164.1583 H   0  0  0  0  0  0  0  0  0  0  0  0
  154.6054  143.6537  163.4464 H   0  0  0  0  0  0  0  0  0  0  0  0
  154.3732  141.5797  162.0342 H   0  0  0  0  0  0  0  0  0  0  0  0
  152.8038  141.2770  162.7266 H   0  0  0  0  0  0  0  0  0  0  0  0
  152.0354  144.6451  162.4768 H   0  0  0  0  0  0  0  0  0  0  0  0
  150.5292  144.5328  157.9209 H   0  0  0  0  0  0  0  0  0  0  0  0
  152.1377  145.1115  157.5706 H   0  0  0  0  0  0  0  0  0  0  0  0
  152.5163  143.3721  156.1537 H   0  0  0  0  0  0  0  0  0  0  0  0
  152.1809  142.2131  157.4278 H   0  0  0  0  0  0  0  0  0  0  0  0
  149.7704  143.3752  156.3075 H   0  0  0  0  0  0  0  0  0  0  0  0
  148.7260  142.1662  154.2596 H   0  0  0  0  0  0  0  0  0  0  0  0
  149.0622  139.9906  153.2749 H   0  0  0  0  0  0  0  0  0  0  0  0
  149.2236  139.2056  154.8508 H   0  0  0  0  0  0  0  0  0  0  0  0
  146.7246  140.4368  153.6566 H   0  0  0  0  0  0  0  0  0  0  0  0
  146.8916  138.8191  154.3491 H   0  0  0  0  0  0  0  0  0  0  0  0
  145.9528  140.8977  155.8736 H   0  0  0  0  0  0  0  0  0  0  0  0
  147.0419  139.7026  156.5818 H   0  0  0  0  0  0  0  0  0  0  0  0
  1  2  1  0  0  0  0
  1 18  1  0  0  0  0
  1 19  1  0  0  0  0
  1 20  1  0  0  0  0
  2  3  1  0  0  0  0
  2 21  1  0  0  0  0
  2 22  1  0  0  0  0
  3 17  1  0  0  0  0
  3  4  2  0  0  0  0
  4  5  1  0  0  0  0
  4 23  1  0  0  0  0
  5  6  2  0  0  0  0
  6  7  1  0  0  0  0
  6 17  1  0  0  0  0
  7  8  1  0  0  0  0
  7 24  1  0  0  0  0
  7 25  1  0  0  0  0
  8  9  1  0  0  0  0
  8 26  1  0  0  0  0
  8 27  1  0  0  0  0
  9 10  1  0  0  0  0
  9 28  1  0  0  0  0
 10 11  2  0  0  0  0
 10 12  1  0  0  0  0
 12 16  1  0  0  0  0
 12 13  1  0  0  0  0
 12 29  1  0  0  0  0
 13 14  1  0  0  0  0
 13 30  1  0  0  0  0
 13 31  1  0  0  0  0
 14 15  1  0  0  0  0
 14 32  1  0  0  0  0
 14 33  1  0  0  0  0
 15 16  1  0  0  0  0
 15 34  1  0  0  0  0
 15 35  1  0  0  0  0
M  END
> <s_m_source_file>
AV-unprocessed.smi

> <i_m_source_file_index>
3229

> <i_lp_mmshare_version>
43012

> <i_f3d_flags>
0

> <s_epik_input>
W0NIM11bQ0gyXWMxW2NIXW5jKHMxKVtDSDJdW0NIMl1bTkhdQyg9TylbQ0BASF0yW0NIMl1bQ0gyXVtDSDJdTzI=

> <s_epik_cmdline>
J2VwaWtfcHl0aG9uJywgJy1waCcsICc3LjAnLCAnLXRuJywgJzgnLCAnLW1hJywgJzIwMCcsICctbWV0YWxfYmluZGluZycsICctaW1hZScsICc8aW5maWxlLm1hZT4nLCAnLW9tYWUnLCAnPG91dGZpbGUubWFlPic=

> <r_epik_Ionization_Penalty>
0.000508191

> <r_epik_Ionization_Penalty_Charging>
0

> <r_epik_Ionization_Penalty_Neutral>
0.000508191

> <r_epik_State_Penalty>
0.000316483

> <r_epik_Charging_Adjusted_Penalty>
0.000316483

> <i_epik_Tot_Q>
0

> <i_epik_Tot_abs_Q>
0

> <r_epik_Metal_State_Penalty>
-0

> <b_epik_Metal_Only>
0

> <s_lp_Force_Field>
OPLS_2005

> <r_lp_Energy>
10.5911

> <b_lp_Chiralities_Consistent>
1

> <s_lp_Variant>
AV-unprocessed.smi:3229-2

> <Gold.Version>
5.8.1

> <Gold.Id.Protein>
6NUR|6NUR_protein|mol2

> <Gold.PLP.Fitness>
43.2242

> <Gold.PLP.PLP>
-39.6099

> <Gold.PLP.part.hbond>
-2.0000

> <Gold.PLP.part.metal>
0.0000

> <Gold.PLP.part.buried>
-5.5666

> <Gold.PLP.part.nonpolar>
-32.1172

> <Gold.PLP.part.repulsive>
0.3514

> <Gold.PLP.ligand.clash>
0.0000

> <Gold.PLP.ligand.torsion>
0.9372

> <Gold.PLP.Chemscore.Hbond>
1.8089

> <Gold.PLP.Chemscore.CHOScore>
0.0000

> <Gold.PLP.Chemscore.Metal>
0.0000

> <Gold.Chemscore.Hbonds>
donor molecule, donor type, donor heavy atom, donor atom, acceptor molecule, acceptor atom, score
      L1  H     9    28       P1  8028  1.00
      P1  H  7989  7998       L1    11  0.82

> <Gold.PLP.Chemscore.Internal.Correction>
0.0621

> <Gold.Rescore>
     Score         DG    S(hbond)    S(metal)    S(lipo)     H(rot)  DE(clash)    DE(int)     intcor
     17.02     -18.88       1.33        0.00     111.78       1.60       0.98       0.88       ----

> <Gold.Chemscore.Fitness>
17.0213

> <Gold.Chemscore.DG>
-18.8828

> <Gold.Chemscore.ZeroCoef>
-5.4800

> <Gold.Chemscore.Hbond>
1.3267

> <Gold.Chemscore.Metal>
0.0000

> <Gold.Chemscore.Lipo>
111.7781

> <Gold.Chemscore.Internal_Hbond>
0.0000

> <Gold.Chemscore.DEClash>
0.9787

> <Gold.Chemscore.DEInternal>
0.8828

> <Gold.Chemscore.Rot>
1.6040

> <Gold.Chemscore.Internal.Correction>
   9.000000E+99

> <Gold.Chemscore.Hbonds>
donor molecule, donor type, donor heavy atom, donor atom, acceptor molecule, acceptor atom, score
      L1  H     9    28       P1  8028  0.94
      P1  H  7989  7998       L1    11  0.19

> <Gold.Chemscore.Hbond.Weighted>
-4.4310

> <Gold.Chemscore.Metal.Weighted>
-0.0000

> <Gold.Chemscore.Lipo.Weighted>
-13.0780

> <Gold.Chemscore.Internal_Hbond.Weighted>
0.0000

> <Gold.Chemscore.DEClash.Weighted>
0.9787

> <Gold.Chemscore.DEInternal.Weighted>
0.8828

> <Gold.Chemscore.Rot.Weighted>
4.1062

> <Gold.Chemscore.Internal.Correction.Weighted>
   9.000000E+99

> <Gold.Protein.RotatedTorsions>
[ 6907 6896 6895 6894 ] final  -56.58 input  -60.11 | X-H torsion
[ 7974 7965 7964 7962 ] final  -27.07 input  175.53 | X-H torsion
[ 8008 7997 7996 7995 ] final   38.76 input   59.86 | X-H torsion
[ 10167 10162 10161 10158 ] final -177.99 input  -65.29 | X-H torsion
[ 10718 10713 10712 10709 ] final  138.75 input   66.30 | X-H torsion
[ 10763 10752 10751 10750 ] final  -81.71 input  -60.55 | X-H torsion
[ 11005 11000 10999 10996 ] final  -70.37 input  -57.11 | X-H torsion

> <Gold.Protein.ActiveResidues>
 VAL166  LYS551  ARG553  GLY616  TRP617  ASP618  TYR619  PRO620  LYS621  CYS622 
 ASP623  PHE694  ASN695  SER759  ASP760  ASP761  ALA762  ILE779  LEU786  VAL792 
 PHE793  MET794  SER795  GLU796  ALA797  LYS798  CYS799  TRP800  GLU811  SER814 

> <Gold.Protein.RotatedAtoms>
  150.8156  134.7336  159.6726 H   0  0  0  0  0  0  0  0  0  0  0  0  # atno 6907 bound_to 6896
  152.4275  134.5838  159.9965 H   0  0  0  0  0  0  0  0  0  0  0  0  # atno 6908 bound_to 6896
  151.6036  133.3316  159.3088 H   0  0  0  0  0  0  0  0  0  0  0  0  # atno 6909 bound_to 6896
  146.1383  140.5103  142.8663 H   0  0  0  0  0  0  0  0  0  0  0  0  # atno 7974 bound_to 7965
  155.2255  140.3334  155.4310 H   0  0  0  0  0  0  0  0  0  0  0  0  # atno 8008 bound_to 7997
  156.2316  140.1853  156.7274 H   0  0  0  0  0  0  0  0  0  0  0  0  # atno 8009 bound_to 7997
  154.5988  140.0626  156.9325 H   0  0  0  0  0  0  0  0  0  0  0  0  # atno 8010 bound_to 7997
  139.5454  144.2251  152.0977 H   0  0  0  0  0  0  0  0  0  0  0  0  # atno 10167 bound_to 10162
  157.4219  131.1039  151.0344 H   0  0  0  0  0  0  0  0  0  0  0  0  # atno 10718 bound_to 10713
  154.5669  135.5617  153.7058 H   0  0  0  0  0  0  0  0  0  0  0  0  # atno 10763 bound_to 10752
  153.0036  135.6287  154.2168 H   0  0  0  0  0  0  0  0  0  0  0  0  # atno 10764 bound_to 10752
  154.2107  135.2874  155.2939 H   0  0  0  0  0  0  0  0  0  0  0  0  # atno 10765 bound_to 10752
  141.1573  133.6788  156.6742 H   0  0  0  0  0  0  0  0  0  0  0  0  # atno 11005 bound_to 11000
  144.7764  140.5748  143.6635 LP  0  0  0  0  0  0  0  0  0  0  0  0  # atno 17320 bound_to 7965
  145.5106  139.1479  143.3607 LP  0  0  0  0  0  0  0  0  0  0  0  0  # atno 17321 bound_to 7965
  140.1736  144.4912  150.6566 LP  0  0  0  0  0  0  0  0  0  0  0  0  # atno 17342 bound_to 10162
  140.6700  143.2282  151.5649 LP  0  0  0  0  0  0  0  0  0  0  0  0  # atno 17343 bound_to 10162
  157.1271  130.6086  149.5520 LP  0  0  0  0  0  0  0  0  0  0  0  0  # atno 17370 bound_to 10713
  155.9883  130.4926  150.7166 LP  0  0  0  0  0  0  0  0  0  0  0  0  # atno 17371 bound_to 10713
  140.3152  134.8053  157.4208 LP  0  0  0  0  0  0  0  0  0  0  0  0  # atno 17394 bound_to 11000
  140.1144  134.5302  155.8237 LP  0  0  0  0  0  0  0  0  0  0  0  0  # atno 17395 bound_to 11000

$$$$
