AV-unprocessed.smi:3104|AV-procd|sdf|11817|dock5
  -GOLD-   2272017183D 1   1.00000     0.00000
 Structure written by MMmdl.
 37 38  0  0  0  0  0  0  0  0  2 V2000
  147.0058  142.3471  154.2095 C   0  0  0  0  0  0  0  0  0  0  0  0
  148.2907  141.6676  154.5854 C   0  0  0  0  0  0  0  0  0  0  0  0
  148.9528  140.6103  153.9006 C   0  0  0  0  0  0  0  0  0  0  0  0
  150.0792  140.2439  154.4889 N   0  0  0  0  0  0  0  0  0  0  0  0
  150.1697  141.0366  155.5789 N   0  0  0  0  0  0  0  0  0  0  0  0
  151.3316  140.9252  156.4543 C   0  0  2  0  0  0  0  0  0  0  0  0
  152.2468  139.7852  155.9686 C   0  0  0  0  0  0  0  0  0  0  0  0
  150.9043  140.7812  157.9402 C   0  0  1  0  0  0  0  0  0  0  0  0
  150.1287  139.4811  158.2103 C   0  0  0  0  0  0  0  0  0  0  0  0
  152.0893  140.8165  158.8300 N   0  3  0  0  0  0  0  0  0  0  0  0
  152.8047  142.1081  158.8618 C   0  0  0  0  0  0  0  0  0  0  0  0
  151.8337  143.2695  158.8586 C   0  0  0  0  0  0  0  0  0  0  0  0
  152.0319  144.4199  157.8983 C   0  0  0  0  0  0  0  0  0  0  0  0
  152.2483  144.6281  159.3763 C   0  0  0  0  0  0  0  0  0  0  0  0
  149.1050  141.9130  155.6544 C   0  0  0  0  0  0  0  0  0  0  0  0
  146.4545  141.7843  153.4559 H   0  0  0  0  0  0  0  0  0  0  0  0
  147.1828  143.3423  153.8013 H   0  0  0  0  0  0  0  0  0  0  0  0
  146.3453  142.4635  155.0689 H   0  0  0  0  0  0  0  0  0  0  0  0
  148.6539  140.1073  152.9925 H   0  0  0  0  0  0  0  0  0  0  0  0
  151.9010  141.8518  156.3561 H   0  0  0  0  0  0  0  0  0  0  0  0
  153.2064  139.7920  156.4846 H   0  0  0  0  0  0  0  0  0  0  0  0
  152.4604  139.8833  154.9035 H   0  0  0  0  0  0  0  0  0  0  0  0
  151.7908  138.8075  156.1272 H   0  0  0  0  0  0  0  0  0  0  0  0
  150.2441  141.6118  158.1963 H   0  0  0  0  0  0  0  0  0  0  0  0
  149.1809  139.4567  157.6730 H   0  0  0  0  0  0  0  0  0  0  0  0
  149.8931  139.3803  159.2704 H   0  0  0  0  0  0  0  0  0  0  0  0
  150.7050  138.6041  157.9139 H   0  0  0  0  0  0  0  0  0  0  0  0
  151.7909  140.6002  159.7703 H   0  0  0  0  0  0  0  0  0  0  0  0
  153.4402  142.1696  159.7455 H   0  0  0  0  0  0  0  0  0  0  0  0
  153.4522  142.1837  157.9875 H   0  0  0  0  0  0  0  0  0  0  0  0
  150.7975  142.9808  159.0253 H   0  0  0  0  0  0  0  0  0  0  0  0
  152.9138  144.4049  157.2609 H   0  0  0  0  0  0  0  0  0  0  0  0
  151.1432  144.8632  157.4534 H   0  0  0  0  0  0  0  0  0  0  0  0
  151.5035  145.2084  159.9169 H   0  0  0  0  0  0  0  0  0  0  0  0
  153.2737  144.7514  159.7195 H   0  0  0  0  0  0  0  0  0  0  0  0
  149.0167  142.6370  156.4512 H   0  0  0  0  0  0  0  0  0  0  0  0
  152.7323  140.0989  158.5247 H   0  0  0  0  0  0  0  0  0  0  0  0
  1  2  1  0  0  0  0
  1 16  1  0  0  0  0
  1 17  1  0  0  0  0
  1 18  1  0  0  0  0
  2 15  2  0  0  0  0
  2  3  1  0  0  0  0
  3  4  2  0  0  0  0
  3 19  1  0  0  0  0
  4  5  1  0  0  0  0
  5  6  1  0  0  0  0
  5 15  1  0  0  0  0
  6  7  1  0  0  0  0
  6  8  1  0  0  0  0
  6 20  1  0  0  0  0
  7 21  1  0  0  0  0
  7 22  1  0  0  0  0
  7 23  1  0  0  0  0
  8  9  1  0  0  0  0
  8 10  1  0  0  0  0
  8 24  1  0  0  0  0
  9 25  1  0  0  0  0
  9 26  1  0  0  0  0
  9 27  1  0  0  0  0
 10 11  1  0  0  0  0
 10 28  1  0  0  0  0
 10 37  1  0  0  0  0
 11 12  1  0  0  0  0
 11 29  1  0  0  0  0
 11 30  1  0  0  0  0
 12 14  1  0  0  0  0
 12 13  1  0  0  0  0
 12 31  1  0  0  0  0
 13 14  1  0  0  0  0
 13 32  1  0  0  0  0
 13 33  1  0  0  0  0
 14 34  1  0  0  0  0
 14 35  1  0  0  0  0
 15 36  1  0  0  0  0
M  CHG  1  10   1
M  END
> <s_m_source_file>
AV-unprocessed.smi

> <i_m_source_file_index>
3104

> <i_lp_mmshare_version>
43012

> <i_f3d_flags>
0

> <s_epik_input>
W0NIM11jMVtjSF1ubihbY0hdMSlbQ0BIXShbQ0gzXSlbQ0BIXShbQ0gzXSlbTkhdW0NIMl1bQ0hdMltDSDJdW0NIMl0y

> <s_epik_cmdline>
J2VwaWtfcHl0aG9uJywgJy1waCcsICc3LjAnLCAnLXRuJywgJzgnLCAnLW1hJywgJzIwMCcsICctbWV0YWxfYmluZGluZycsICctaW1hZScsICc8aW5maWxlLm1hZT4nLCAnLW9tYWUnLCAnPG91dGZpbGUubWFlPic=

> <r_lp_tautomer_probability>
1

> <r_epik_Ionization_Penalty>
0.00120445

> <r_epik_Ionization_Penalty_Charging>
0.00118273

> <r_epik_Ionization_Penalty_Neutral>
2.17265e-05

> <r_epik_State_Penalty>
-0

> <r_epik_Charging_Adjusted_Penalty>
0.00118273

> <i_epik_Tot_Q>
1

> <i_epik_Tot_abs_Q>
1

> <r_epik_Metal_State_Penalty>
-0

> <b_epik_Metal_Only>
0

> <s_lp_Force_Field>
OPLS_2005

> <r_lp_Energy>
20.7188

> <b_lp_Chiralities_Consistent>
1

> <s_lp_Variant>
AV-unprocessed.smi:3104-3

> <Gold.Version>
5.8.1

> <Gold.Id.Protein>
6NUR|6NUR_protein|mol2

> <Gold.PLP.Fitness>
42.0108

> <Gold.PLP.PLP>
-34.8158

> <Gold.PLP.part.hbond>
-1.0000

> <Gold.PLP.part.metal>
0.0000

> <Gold.PLP.part.buried>
1.0426

> <Gold.PLP.part.nonpolar>
-34.8071

> <Gold.PLP.part.repulsive>
0.2239

> <Gold.PLP.ligand.clash>
0.0000

> <Gold.PLP.ligand.torsion>
0.6758

> <Gold.PLP.Chemscore.Hbond>
1.0000

> <Gold.PLP.Chemscore.CHOScore>
1.6421

> <Gold.PLP.Chemscore.Metal>
0.0000

> <Gold.Chemscore.Hbonds>
donor molecule, donor type, donor heavy atom, donor atom, acceptor molecule, acceptor atom, score
      P1  H  7989  7998       L1     4  1.00
      L1  C     3    19       P1  7957  0.99
      L1  C    15    36       P1  8028  0.64

> <Gold.PLP.Chemscore.Internal.Correction>
0.6202

> <Gold.Rescore>
     Score         DG    S(hbond)    S(metal)    S(lipo)     H(rot)  DE(clash)    DE(int)     intcor
     13.64     -14.50       0.55        0.00      94.10       1.49       0.09       0.77       ----

> <Gold.Chemscore.Fitness>
13.6422

> <Gold.Chemscore.DG>
-14.5029

> <Gold.Chemscore.ZeroCoef>
-5.4800

> <Gold.Chemscore.Hbond>
0.5490

> <Gold.Chemscore.Metal>
0.0000

> <Gold.Chemscore.Lipo>
94.0978

> <Gold.Chemscore.Internal_Hbond>
0.0000

> <Gold.Chemscore.DEClash>
0.0904

> <Gold.Chemscore.DEInternal>
0.7703

> <Gold.Chemscore.Rot>
1.4923

> <Gold.Chemscore.Internal.Correction>
   9.000000E+99

> <Gold.Chemscore.Hbonds>
donor molecule, donor type, donor heavy atom, donor atom, acceptor molecule, acceptor atom, score
      P1  H  7989  7998       L1     4  0.19

> <Gold.Chemscore.Hbond.Weighted>
-1.8338

> <Gold.Chemscore.Metal.Weighted>
-0.0000

> <Gold.Chemscore.Lipo.Weighted>
-11.0094

> <Gold.Chemscore.Internal_Hbond.Weighted>
0.0000

> <Gold.Chemscore.DEClash.Weighted>
0.0904

> <Gold.Chemscore.DEInternal.Weighted>
0.7703

> <Gold.Chemscore.Rot.Weighted>
3.8204

> <Gold.Chemscore.Internal.Correction.Weighted>
   9.000000E+99

> <Gold.Protein.RotatedTorsions>
[ 6907 6896 6895 6894 ] final  123.04 input  -60.11 | X-H torsion
[ 7974 7965 7964 7962 ] final -127.01 input  175.53 | X-H torsion
[ 8008 7997 7996 7995 ] final   13.08 input   59.86 | X-H torsion
[ 10167 10162 10161 10158 ] final  110.97 input  -65.29 | X-H torsion
[ 10718 10713 10712 10709 ] final  -44.01 input   66.30 | X-H torsion
[ 10763 10752 10751 10750 ] final   79.39 input  -60.55 | X-H torsion
[ 11005 11000 10999 10996 ] final -151.14 input  -57.11 | X-H torsion

> <Gold.Protein.ActiveResidues>
 VAL166  LYS551  ARG553  GLY616  TRP617  ASP618  TYR619  PRO620  LYS621  CYS622 
 ASP623  PHE694  ASN695  SER759  ASP760  ASP761  ALA762  ILE779  LEU786  VAL792 
 PHE793  MET794  SER795  GLU796  ALA797  LYS798  CYS799  TRP800  GLU811  SER814 

> <Gold.Protein.RotatedAtoms>
  152.4194  133.7091  159.6468 H   0  0  0  0  0  0  0  0  0  0  0  0  # atno 6907 bound_to 6896
  150.8070  133.8481  159.3206 H   0  0  0  0  0  0  0  0  0  0  0  0  # atno 6908 bound_to 6896
  151.6201  135.1035  160.0151 H   0  0  0  0  0  0  0  0  0  0  0  0  # atno 6909 bound_to 6896
  144.9814  140.7644  143.4610 H   0  0  0  0  0  0  0  0  0  0  0  0  # atno 7974 bound_to 7965
  154.8295  140.2897  155.5731 H   0  0  0  0  0  0  0  0  0  0  0  0  # atno 8008 bound_to 7997
  156.3004  140.2534  156.3149 H   0  0  0  0  0  0  0  0  0  0  0  0  # atno 8009 bound_to 7997
  154.9247  140.0385  157.2006 H   0  0  0  0  0  0  0  0  0  0  0  0  # atno 8010 bound_to 7997
  139.6647  144.7128  151.1799 H   0  0  0  0  0  0  0  0  0  0  0  0  # atno 10167 bound_to 10162
  156.2431  130.4181  149.8737 H   0  0  0  0  0  0  0  0  0  0  0  0  # atno 10718 bound_to 10713
  153.0949  135.4841  154.8759 H   0  0  0  0  0  0  0  0  0  0  0  0  # atno 10763 bound_to 10752
  154.7312  135.3060  154.8890 H   0  0  0  0  0  0  0  0  0  0  0  0  # atno 10764 bound_to 10752
  153.9525  135.6821  153.4797 H   0  0  0  0  0  0  0  0  0  0  0  0  # atno 10765 bound_to 10752
  140.7327  134.3603  157.5163 H   0  0  0  0  0  0  0  0  0  0  0  0  # atno 11005 bound_to 11000
  145.2415  139.2070  143.4990 LP  0  0  0  0  0  0  0  0  0  0  0  0  # atno 17320 bound_to 7965
  146.3409  140.2312  142.8593 LP  0  0  0  0  0  0  0  0  0  0  0  0  # atno 17321 bound_to 7965
  140.7594  143.5938  150.8769 LP  0  0  0  0  0  0  0  0  0  0  0  0  # atno 17342 bound_to 10162
  139.9598  143.6176  152.3005 LP  0  0  0  0  0  0  0  0  0  0  0  0  # atno 17343 bound_to 10162
  156.6312  130.8666  151.3495 LP  0  0  0  0  0  0  0  0  0  0  0  0  # atno 17370 bound_to 10713
  157.7183  130.9526  150.1341 LP  0  0  0  0  0  0  0  0  0  0  0  0  # atno 17371 bound_to 10713
  139.8823  134.9029  156.2843 LP  0  0  0  0  0  0  0  0  0  0  0  0  # atno 17394 bound_to 11000
  140.9907  133.7211  156.0809 LP  0  0  0  0  0  0  0  0  0  0  0  0  # atno 17395 bound_to 11000

$$$$
