#       Name:                AV-unprocessed.smi:53
#       Creating user name   scv26
#       Creation time:       Thu Mar 26 16:38:40 2020


#       File generated by GOLD software.
#

@<TRIPOS>MOLECULE
AV-unprocessed.smi:53
    41    42     1
SMALL
NO_CHARGES


@<TRIPOS>ATOM
      1 ****        -5.0530  -0.4010   0.5768 N.pl3          1 S1                 0.0000
      2 ****        -3.7142  -0.4633   0.5463 C.2            1 S1                 0.0000
      3 ****        -2.9397   0.6718   0.0966 C.2            1 S1                 0.0000
      4 ****        -1.5957   0.5316   0.0977 C.2            1 S1                 0.0000
      5 ****        -0.9751  -0.6368   0.5160 N.am           1 S1                 0.0000
      6 ****         0.5338  -0.7601   0.4998 C.3            1 S1                 0.0000
      7 ****         1.0808   0.4767   0.8300 O.3            1 S1                 0.0000
      8 ****         2.3387   0.6004   0.1851 C.3            1 S1                 0.0000
      9 ****         2.7469   2.0798   0.1102 C.3            1 S1                 0.0000
     10 ****         3.3590   2.4765   1.3187 O.3            1 S1                 0.0000
     11 ****         2.0756  -0.0322  -1.1862 C.3            1 S1                 0.0000
     12 ****         3.2796  -0.5336  -1.7330 O.3            1 S1                 0.0000
     13 ****         1.1041  -1.1690  -0.8779 C.3            1 S1                 0.0000
     14 ****         0.1332  -1.2867  -1.9030 O.3            1 S1                 0.0000
     15 ****        -1.7599  -1.7384   0.9325 C.2            1 S1                 0.0000
     16 ****        -1.2531  -2.8064   1.2737 O.2            1 S1                 0.0000
     17 ****        -3.1196  -1.5772   0.9285 N.2            1 S1                 0.0000
     18 ****         0.8120  -1.4562   1.2933 H              1 S1                 0.0000
     19 ****         3.0786   0.0113   0.7318 H              1 S1                 0.0000
     20 ****         1.6217   0.6986  -1.8579 H              1 S1                 0.0000
     21 ****         1.6197  -2.1227  -0.7548 H              1 S1                 0.0000
     22 ****        -5.5914  -1.1964   0.8879 H              1 S1                 0.0000
     23 ****        -5.5219   0.4449   0.2858 H              1 S1                 0.0000
     24 ****        -3.3816   1.6013  -0.2326 H              1 S1                 0.0000
     25 ****        -0.9977   1.3632  -0.2464 H              1 S1                 0.0000
     26 ****         3.4758   2.2275  -0.6872 H              1 S1                 0.0000
     27 ****         1.8906   2.7174  -0.1116 H              1 S1                 0.0000
     28 ****         3.6142   3.3833   1.2429 H              1 S1                 0.0000
     29 ****         3.6432  -1.1655  -1.1319 H              1 S1                 0.0000
     30 ****        -0.5048  -1.9309  -1.6357 H              1 S1                 0.0000
     31 ****         1.2024   0.5379   1.8207 LP             1 S1                 0.0000
     32 ****         0.4713   1.2077   0.5231 LP             1 S1                 0.0000
     33 ****         4.1668   1.9120   1.4886 LP             1 S1                 0.0000
     34 ****         2.7130   2.3701   2.0746 LP             1 S1                 0.0000
     35 ****         3.9274   0.2165  -1.8660 LP             1 S1                 0.0000
     36 ****         3.0934  -0.9729  -2.6119 LP             1 S1                 0.0000
     37 ****         0.5725  -1.5784  -2.7527 LP             1 S1                 0.0000
     38 ****        -0.3162  -0.4049  -2.0458 LP             1 S1                 0.0000
     39 ****        -0.2590  -2.9146   1.2617 LP             1 S1                 0.0000
     40 ****        -1.8352  -3.5663   1.5630 LP             1 S1                 0.0000
     41 ****        -3.6899  -2.3413   1.2300 LP             1 S1                 0.0000
@<TRIPOS>BOND
    1    1    2 1     
    2    1   22 1     
    3    1   23 1     
    4    2   17 2     
    5    2    3 1     
    6    3    4 2     
    7    3   24 1     
    8    4    5 1     
    9    4   25 1     
   10    5    6 1     
   11    5   15 am    
   12    6   18 1     
   13    6   13 1     
   14    6    7 1     
   15    7    8 1     
   16    8   19 1     
   17    8    9 1     
   18    8   11 1     
   19    9   10 1     
   20    9   26 1     
   21    9   27 1     
   22   10   28 1     
   23   11   20 1     
   24   11   12 1     
   25   11   13 1     
   26   12   29 1     
   27   13   21 1     
   28   13   14 1     
   29   14   30 1     
   30   15   16 2     
   31   15   17 1     
   32    7   31 1     
   33    7   32 1     
   34   10   33 1     
   35   10   34 1     
   36   12   35 1     
   37   12   36 1     
   38   14   37 1     
   39   14   38 1     
   40   16   39 1     
   41   16   40 1     
   42   17   41 1     
@<TRIPOS>SUBSTRUCTURE
      1 S1             1
@<TRIPOS>SET
LONE_PAIRS      STATIC     ATOMS    <user>   **** ""
11 31 32 33 34 35 36 37 38 39 40 41
DONOR_HYDROGENS      STATIC     ATOMS    <user>   **** ""
5 22 23 28 29 30
ATOM$BLUE        STATIC     ATOMS    COLORGROUP SYSTEM
11 31 32 33 34 35 36 37 38 39 40 41
ATOM$RED        STATIC     ATOMS    COLORGROUP SYSTEM
5 22 23 28 29 30
