AV-unprocessed.smi:3116|AV-procd|sdf|11864|dock2
  -GOLD-   2272017243D 1   1.00000     0.00000
 Structure written by MMmdl.
 34 34  0  0  0  0  0  0  0  0  2 V2000
  146.2868  139.3055  151.7004 C   0  0  0  0  0  0  0  0  0  0  0  0
  146.4353  139.1117  153.2173 C   0  0  2  0  0  0  0  0  0  0  0  0
  147.8003  138.6195  153.5162 N   0  3  0  0  0  0  0  0  0  0  0  0
  148.4074  139.0625  154.7968 C   0  0  1  0  0  0  0  0  0  0  0  0
  147.9150  138.1776  155.9586 C   0  0  0  0  0  0  0  0  0  0  0  0
  149.9532  139.0683  154.6619 C   0  0  2  0  0  0  0  0  0  0  0  0
  150.5912  137.6715  154.7860 C   0  0  0  0  0  0  0  0  0  0  0  0
  150.5512  139.9727  155.6390 N   0  0  0  0  0  0  0  0  0  0  0  0
  151.4678  139.6922  156.6337 C   0  0  0  0  0  0  0  0  0  0  0  0
  151.6897  140.8492  157.3235 C   0  0  0  0  0  0  0  0  0  0  0  0
  150.8482  141.7957  156.6761 C   0  0  0  0  0  0  0  0  0  0  0  0
  150.1619  141.2663  155.6766 N   0  0  0  0  0  0  0  0  0  0  0  0
  145.3641  138.1394  153.7303 C   0  0  0  0  0  0  0  0  0  0  0  0
  144.0894  138.4588  153.4930 N   0  0  0  0  0  0  0  0  0  0  0  0
  145.6796  137.1109  154.3266 O   0  0  0  0  0  0  0  0  0  0  0  0
  145.3041  139.7029  151.4430 H   0  0  0  0  0  0  0  0  0  0  0  0
  146.4182  138.3666  151.1607 H   0  0  0  0  0  0  0  0  0  0  0  0
  147.0305  140.0086  151.3235 H   0  0  0  0  0  0  0  0  0  0  0  0
  146.2872  140.0819  153.6945 H   0  0  0  0  0  0  0  0  0  0  0  0
  147.8087  137.6104  153.4636 H   0  0  0  0  0  0  0  0  0  0  0  0
  148.0907  140.0892  154.9869 H   0  0  0  0  0  0  0  0  0  0  0  0
  148.3089  138.5116  156.9177 H   0  0  0  0  0  0  0  0  0  0  0  0
  148.2109  137.1374  155.8182 H   0  0  0  0  0  0  0  0  0  0  0  0
  146.8295  138.2044  156.0501 H   0  0  0  0  0  0  0  0  0  0  0  0
  150.2060  139.4461  153.6690 H   0  0  0  0  0  0  0  0  0  0  0  0
  150.3147  137.0265  153.9524 H   0  0  0  0  0  0  0  0  0  0  0  0
  150.2914  137.1723  155.7081 H   0  0  0  0  0  0  0  0  0  0  0  0
  151.6797  137.7385  154.7836 H   0  0  0  0  0  0  0  0  0  0  0  0
  151.8810  138.7035  156.7695 H   0  0  0  0  0  0  0  0  0  0  0  0
  152.3504  140.9971  158.1650 H   0  0  0  0  0  0  0  0  0  0  0  0
  150.7116  142.8423  156.9052 H   0  0  0  0  0  0  0  0  0  0  0  0
  143.3453  137.8567  153.8142 H   0  0  0  0  0  0  0  0  0  0  0  0
  143.8721  139.3105  152.9949 H   0  0  0  0  0  0  0  0  0  0  0  0
  148.3994  138.9739  152.7839 H   0  0  0  0  0  0  0  0  0  0  0  0
  1  2  1  0  0  0  0
  1 16  1  0  0  0  0
  1 17  1  0  0  0  0
  1 18  1  0  0  0  0
  2  3  1  0  0  0  0
  2 13  1  0  0  0  0
  2 19  1  0  0  0  0
  3  4  1  0  0  0  0
  3 20  1  0  0  0  0
  3 34  1  0  0  0  0
  4  5  1  0  0  0  0
  4  6  1  0  0  0  0
  4 21  1  0  0  0  0
  5 22  1  0  0  0  0
  5 23  1  0  0  0  0
  5 24  1  0  0  0  0
  6  7  1  0  0  0  0
  6  8  1  0  0  0  0
  6 25  1  0  0  0  0
  7 26  1  0  0  0  0
  7 27  1  0  0  0  0
  7 28  1  0  0  0  0
  8 12  1  0  0  0  0
  8  9  1  0  0  0  0
  9 10  2  0  0  0  0
  9 29  1  0  0  0  0
 10 11  1  0  0  0  0
 10 30  1  0  0  0  0
 11 12  2  0  0  0  0
 11 31  1  0  0  0  0
 13 14  1  0  0  0  0
 13 15  2  0  0  0  0
 14 32  1  0  0  0  0
 14 33  1  0  0  0  0
M  CHG  1   3   1
M  END
> <s_m_source_file>
AV-unprocessed.smi

> <i_m_source_file_index>
3116

> <i_lp_mmshare_version>
43012

> <i_f3d_flags>
0

> <s_epik_input>
W05IMl1DKD1PKVtDQEhdKFtDSDNdKVtOSF1bQ0BIXShbQ0gzXSlbQ0BIXShbQ0gzXSluMVtjSF1bY0hdW2NIXW4x

> <s_epik_cmdline>
J2VwaWtfcHl0aG9uJywgJy1waCcsICc3LjAnLCAnLXRuJywgJzgnLCAnLW1hJywgJzIwMCcsICctbWV0YWxfYmluZGluZycsICctaW1hZScsICc8aW5maWxlLm1hZT4nLCAnLW9tYWUnLCAnPG91dGZpbGUubWFlPic=

> <r_lp_tautomer_probability>
1

> <r_epik_Ionization_Penalty>
0.15658

> <r_epik_Ionization_Penalty_Charging>
0.156568

> <r_epik_Ionization_Penalty_Neutral>
1.19778e-05

> <r_epik_State_Penalty>
0.145866

> <r_epik_Charging_Adjusted_Penalty>
0.302434

> <i_epik_Tot_Q>
1

> <i_epik_Tot_abs_Q>
1

> <r_epik_Metal_State_Penalty>
0.146064

> <b_epik_Metal_Only>
0

> <s_lp_Force_Field>
OPLS_2005

> <r_lp_Energy>
10.2724

> <b_lp_Chiralities_Consistent>
1

> <s_lp_Variant>
AV-unprocessed.smi:3116-3

> <Gold.Version>
5.8.1

> <Gold.Id.Protein>
6NUR|6NUR_protein|mol2

> <Gold.PLP.Fitness>
40.8678

> <Gold.PLP.PLP>
-27.9033

> <Gold.PLP.part.hbond>
-4.0115

> <Gold.PLP.part.metal>
0.0000

> <Gold.PLP.part.buried>
1.3595

> <Gold.PLP.part.nonpolar>
-24.8671

> <Gold.PLP.part.repulsive>
0.2811

> <Gold.PLP.ligand.clash>
0.0000

> <Gold.PLP.ligand.torsion>
1.0900

> <Gold.PLP.Chemscore.Hbond>
4.0000

> <Gold.PLP.Chemscore.CHOScore>
0.9956

> <Gold.PLP.Chemscore.Metal>
0.0000

> <Gold.Chemscore.Hbonds>
donor molecule, donor type, donor heavy atom, donor atom, acceptor molecule, acceptor atom, score
      L1  H     3    20       P1  7948  0.09
      L1  H     3    34       P1  7957  0.39
      L1  H    14    33       P1 10175  0.34
      L1  C    11    31       P1  8028  0.09

> <Gold.PLP.Chemscore.Internal.Correction>
0.1576

> <Gold.Rescore>
     Score         DG    S(hbond)    S(metal)    S(lipo)     H(rot)  DE(clash)    DE(int)     intcor
     14.40     -16.43       2.99        0.00      61.85       2.45       0.56       1.47       ----

> <Gold.Chemscore.Fitness>
14.4043

> <Gold.Chemscore.DG>
-16.4339

> <Gold.Chemscore.ZeroCoef>
-5.4800

> <Gold.Chemscore.Hbond>
2.9883

> <Gold.Chemscore.Metal>
0.0000

> <Gold.Chemscore.Lipo>
61.8471

> <Gold.Chemscore.Internal_Hbond>
0.0000

> <Gold.Chemscore.DEClash>
0.5632

> <Gold.Chemscore.DEInternal>
1.4664

> <Gold.Chemscore.Rot>
2.4465

> <Gold.Chemscore.Internal.Correction>
   9.000000E+99

> <Gold.Chemscore.Hbonds>
donor molecule, donor type, donor heavy atom, donor atom, acceptor molecule, acceptor atom, score
      L1  H     3    20       P1  7948  0.06
      L1  H     3    34       P1  7957  0.39
      L1  H    14    33       P1 10175  0.33

> <Gold.Chemscore.Hbond.Weighted>
-9.9809

> <Gold.Chemscore.Metal.Weighted>
-0.0000

> <Gold.Chemscore.Lipo.Weighted>
-7.2361

> <Gold.Chemscore.Internal_Hbond.Weighted>
0.0000

> <Gold.Chemscore.DEClash.Weighted>
0.5632

> <Gold.Chemscore.DEInternal.Weighted>
1.4664

> <Gold.Chemscore.Rot.Weighted>
6.2631

> <Gold.Chemscore.Internal.Correction.Weighted>
   9.000000E+99

> <Gold.Protein.RotatedTorsions>
[ 6907 6896 6895 6894 ] final -105.26 input  -60.11 | X-H torsion
[ 7974 7965 7964 7962 ] final   71.53 input  175.53 | X-H torsion
[ 8008 7997 7996 7995 ] final -132.53 input   59.86 | X-H torsion
[ 10167 10162 10161 10158 ] final  -29.30 input  -65.29 | X-H torsion
[ 10718 10713 10712 10709 ] final   48.32 input   66.30 | X-H torsion
[ 10763 10752 10751 10750 ] final  -22.06 input  -60.55 | X-H torsion
[ 11005 11000 10999 10996 ] final  -29.85 input  -57.11 | X-H torsion

> <Gold.Protein.ActiveResidues>
 VAL166  LYS551  ARG553  GLY616  TRP617  ASP618  TYR619  PRO620  LYS621  CYS622 
 ASP623  PHE694  ASN695  SER759  ASP760  ASP761  ALA762  ILE779  LEU786  VAL792 
 PHE793  MET794  SER795  GLU796  ALA797  LYS798  CYS799  TRP800  GLU811  SER814 

> <Gold.Protein.RotatedAtoms>
  150.7328  134.0154  159.3683 H   0  0  0  0  0  0  0  0  0  0  0  0  # atno 6907 bound_to 6896
  151.8116  135.0677  160.0423 H   0  0  0  0  0  0  0  0  0  0  0  0  # atno 6908 bound_to 6896
  152.3068  133.5675  159.5691 H   0  0  0  0  0  0  0  0  0  0  0  0  # atno 6909 bound_to 6896
  145.7647  139.2816  143.1356 H   0  0  0  0  0  0  0  0  0  0  0  0  # atno 7974 bound_to 7965
  155.3305  140.0467  157.3042 H   0  0  0  0  0  0  0  0  0  0  0  0  # atno 8008 bound_to 7997
  154.5331  140.2263  155.8736 H   0  0  0  0  0  0  0  0  0  0  0  0  # atno 8009 bound_to 7997
  156.1808  140.3074  155.9151 H   0  0  0  0  0  0  0  0  0  0  0  0  # atno 8010 bound_to 7997
  140.7262  143.3940  151.1380 H   0  0  0  0  0  0  0  0  0  0  0  0  # atno 10167 bound_to 10162
  157.4675  130.8234  149.7952 H   0  0  0  0  0  0  0  0  0  0  0  0  # atno 10718 bound_to 10713
  153.6460  135.6983  153.5225 H   0  0  0  0  0  0  0  0  0  0  0  0  # atno 10763 bound_to 10752
  153.2744  135.4205  155.1018 H   0  0  0  0  0  0  0  0  0  0  0  0  # atno 10764 bound_to 10752
  154.8488  135.3586  154.6004 H   0  0  0  0  0  0  0  0  0  0  0  0  # atno 10765 bound_to 10752
  140.9332  133.7325  156.0966 H   0  0  0  0  0  0  0  0  0  0  0  0  # atno 11005 bound_to 11000
  146.0230  140.8330  142.9914 LP  0  0  0  0  0  0  0  0  0  0  0  0  # atno 17320 bound_to 7965
  144.6824  140.2656  143.7313 LP  0  0  0  0  0  0  0  0  0  0  0  0  # atno 17321 bound_to 7965
  139.7549  143.8722  152.3086 LP  0  0  0  0  0  0  0  0  0  0  0  0  # atno 17342 bound_to 10162
  139.8588  144.7127  150.9124 LP  0  0  0  0  0  0  0  0  0  0  0  0  # atno 17343 bound_to 10162
  156.0057  130.3857  150.2440 LP  0  0  0  0  0  0  0  0  0  0  0  0  # atno 17370 bound_to 10713
  157.0620  131.0092  151.3219 LP  0  0  0  0  0  0  0  0  0  0  0  0  # atno 17371 bound_to 10713
  140.7834  134.3699  157.5482 LP  0  0  0  0  0  0  0  0  0  0  0  0  # atno 17394 bound_to 11000
  139.8801  134.9096  156.2994 LP  0  0  0  0  0  0  0  0  0  0  0  0  # atno 17395 bound_to 11000

$$$$
