AV-unprocessed.smi:3282|AV-procd|sdf|12567|dock7
  -GOLD-   2272018483D 1   1.00000     0.00000
 Structure written by MMmdl.
 33 34  0  0  0  0  0  0  0  0  2 V2000
  153.1860  142.8115  162.9071 C   0  0  0  0  0  0  0  0  0  0  0  0
  152.9914  143.3528  161.4814 C   0  0  0  0  0  0  0  0  0  0  0  0
  152.2239  142.3949  160.5547 C   0  0  0  0  0  0  0  0  0  0  0  0
  151.8698  141.2912  160.9724 O   0  0  0  0  0  0  0  0  0  0  0  0
  151.9609  142.8021  159.2955 N   0  0  0  0  0  0  0  0  0  0  0  0
  152.3354  144.0923  158.7203 C   0  0  0  0  0  0  0  0  0  0  0  0
  151.6356  144.1675  157.3631 C   0  0  0  0  0  0  0  0  0  0  0  0
  151.3864  142.7134  156.9723 C   0  0  2  0  0  0  0  0  0  0  0  0
  150.1897  142.5750  156.1475 N   0  0  0  0  0  0  0  0  0  0  0  0
  149.8238  141.4714  155.4798 C   0  0  0  0  0  0  0  0  0  0  0  0
  150.5294  140.4613  155.5296 O   0  0  0  0  0  0  0  0  0  0  0  0
  148.6628  141.6061  154.7999 N   0  5  0  0  0  0  0  0  0  0  0  0
  148.0354  140.5172  154.3265 C   0  0  0  0  0  0  0  0  0  0  0  0
  148.4424  139.2531  154.4531 N   0  0  0  0  0  0  0  0  0  0  0  0
  147.4900  138.4815  153.8053 C   0  0  0  0  0  0  0  0  0  0  0  0
  146.5380  139.3252  153.3018 C   0  0  0  0  0  0  0  0  0  0  0  0
  146.8734  140.6120  153.6199 O   0  0  0  0  0  0  0  0  0  0  0  0
  151.2539  141.9820  158.3151 C   0  0  0  0  0  0  0  0  0  0  0  0
  153.7374  143.5267  163.5178 H   0  0  0  0  0  0  0  0  0  0  0  0
  153.7492  141.8776  162.9048 H   0  0  0  0  0  0  0  0  0  0  0  0
  152.2297  142.6289  163.3992 H   0  0  0  0  0  0  0  0  0  0  0  0
  152.4541  144.3004  161.5297 H   0  0  0  0  0  0  0  0  0  0  0  0
  153.9689  143.5622  161.0456 H   0  0  0  0  0  0  0  0  0  0  0  0
  152.0441  144.9299  159.3552 H   0  0  0  0  0  0  0  0  0  0  0  0
  153.4180  144.1226  158.5895 H   0  0  0  0  0  0  0  0  0  0  0  0
  150.6864  144.6928  157.4822 H   0  0  0  0  0  0  0  0  0  0  0  0
  152.2201  144.7084  156.6183 H   0  0  0  0  0  0  0  0  0  0  0  0
  152.2623  142.3397  156.4387 H   0  0  0  0  0  0  0  0  0  0  0  0
  149.5852  143.3806  156.0790 H   0  0  0  0  0  0  0  0  0  0  0  0
  147.5652  137.4057  153.7531 H   0  0  0  0  0  0  0  0  0  0  0  0
  145.6302  139.1836  152.7351 H   0  0  0  0  0  0  0  0  0  0  0  0
  151.6644  140.9728  158.2546 H   0  0  0  0  0  0  0  0  0  0  0  0
  150.2092  141.9014  158.6209 H   0  0  0  0  0  0  0  0  0  0  0  0
  1  2  1  0  0  0  0
  1 19  1  0  0  0  0
  1 20  1  0  0  0  0
  1 21  1  0  0  0  0
  2  3  1  0  0  0  0
  2 22  1  0  0  0  0
  2 23  1  0  0  0  0
  3  4  2  0  0  0  0
  3  5  1  0  0  0  0
  5 18  1  0  0  0  0
  5  6  1  0  0  0  0
  6  7  1  0  0  0  0
  6 24  1  0  0  0  0
  6 25  1  0  0  0  0
  7  8  1  0  0  0  0
  7 26  1  0  0  0  0
  7 27  1  0  0  0  0
  8  9  1  0  0  0  0
  8 18  1  0  0  0  0
  8 28  1  0  0  0  0
  9 10  1  0  0  0  0
  9 29  1  0  0  0  0
 10 11  2  0  0  0  0
 10 12  1  0  0  0  0
 12 13  1  0  0  0  0
 13 17  1  0  0  0  0
 13 14  2  0  0  0  0
 14 15  1  0  0  0  0
 15 16  2  0  0  0  0
 15 30  1  0  0  0  0
 16 17  1  0  0  0  0
 16 31  1  0  0  0  0
 18 32  1  0  0  0  0
 18 33  1  0  0  0  0
M  CHG  1  12  -1
M  END
> <s_m_source_file>
AV-unprocessed.smi

> <i_m_source_file_index>
3282

> <i_lp_mmshare_version>
43012

> <i_f3d_flags>
0

> <s_epik_input>
W0NIM11bQ0gyXUMoPU8pTjFbQ0gyXVtDSDJdW0NASF0oW0NIMl0xKVtOSF1DKD1PKVtOSF1jMm5bY0hdW2NIXW8y

> <s_epik_cmdline>
J2VwaWtfcHl0aG9uJywgJy1waCcsICc3LjAnLCAnLXRuJywgJzgnLCAnLW1hJywgJzIwMCcsICctbWV0YWxfYmluZGluZycsICctaW1hZScsICc8aW5maWxlLm1hZT4nLCAnLW9tYWUnLCAnPG91dGZpbGUubWFlPic=

> <r_lp_tautomer_probability>
0.785861

> <r_epik_Ionization_Penalty>
9.30511

> <r_epik_Ionization_Penalty_Charging>
6.7516

> <r_epik_Ionization_Penalty_Neutral>
2.55351

> <r_epik_State_Penalty>
6.77285

> <r_epik_Charging_Adjusted_Penalty>
13.5244

> <i_epik_Tot_Q>
-1

> <i_epik_Tot_abs_Q>
1

> <r_epik_Metal_State_Penalty>
2.67327

> <b_epik_Metal_Only>
1

> <s_lp_Force_Field>
OPLS_2005

> <r_lp_Energy>
20.6417

> <b_lp_Chiralities_Consistent>
1

> <s_lp_Variant>
AV-unprocessed.smi:3282-8

> <Gold.Version>
5.8.1

> <Gold.Id.Protein>
6NUR|6NUR_protein|mol2

> <Gold.PLP.Fitness>
44.0182

> <Gold.PLP.PLP>
-32.6859

> <Gold.PLP.part.hbond>
-2.5919

> <Gold.PLP.part.metal>
0.0000

> <Gold.PLP.part.buried>
-1.3065

> <Gold.PLP.part.nonpolar>
-29.5352

> <Gold.PLP.part.repulsive>
0.6709

> <Gold.PLP.ligand.clash>
0.0000

> <Gold.PLP.ligand.torsion>
0.1954

> <Gold.PLP.Chemscore.Hbond>
1.9033

> <Gold.PLP.Chemscore.CHOScore>
2.0000

> <Gold.PLP.Chemscore.Metal>
0.0000

> <Gold.Chemscore.Hbonds>
donor molecule, donor type, donor heavy atom, donor atom, acceptor molecule, acceptor atom, score
      L1  H     9    29       P1  8028  1.00
      P1  H  6933  6945       L1     4  0.13
      P1  H  7989  7998       L1    11  0.15
      L1  C    15    30       P1  7948  0.63
      L1  C    16    31       P1 10175  1.00

> <Gold.PLP.Chemscore.Internal.Correction>
0.0132

> <Gold.Rescore>
     Score         DG    S(hbond)    S(metal)    S(lipo)     H(rot)  DE(clash)    DE(int)     intcor
     12.58     -16.64       1.54        0.00      80.07       1.31       1.95       2.11       ----

> <Gold.Chemscore.Fitness>
12.5791

> <Gold.Chemscore.DG>
-16.6356

> <Gold.Chemscore.ZeroCoef>
-5.4800

> <Gold.Chemscore.Hbond>
1.5378

> <Gold.Chemscore.Metal>
0.0000

> <Gold.Chemscore.Lipo>
80.0702

> <Gold.Chemscore.Internal_Hbond>
0.0000

> <Gold.Chemscore.DEClash>
1.9482

> <Gold.Chemscore.DEInternal>
2.1082

> <Gold.Chemscore.Rot>
1.3082

> <Gold.Chemscore.Internal.Correction>
   9.000000E+99

> <Gold.Chemscore.Hbonds>
donor molecule, donor type, donor heavy atom, donor atom, acceptor molecule, acceptor atom, score
      L1  H     9    29       P1  8028  0.97
      P1  H  6933  6945       L1     4  0.06
      P1  H  7989  7998       L1    11  0.02

> <Gold.Chemscore.Hbond.Weighted>
-5.1362

> <Gold.Chemscore.Metal.Weighted>
-0.0000

> <Gold.Chemscore.Lipo.Weighted>
-9.3682

> <Gold.Chemscore.Internal_Hbond.Weighted>
0.0000

> <Gold.Chemscore.DEClash.Weighted>
1.9482

> <Gold.Chemscore.DEInternal.Weighted>
2.1082

> <Gold.Chemscore.Rot.Weighted>
3.3489

> <Gold.Chemscore.Internal.Correction.Weighted>
   9.000000E+99

> <Gold.Protein.RotatedTorsions>
[ 6907 6896 6895 6894 ] final  102.10 input  -60.11 | X-H torsion
[ 7974 7965 7964 7962 ] final -161.68 input  175.53 | X-H torsion
[ 8008 7997 7996 7995 ] final    6.42 input   59.86 | X-H torsion
[ 10167 10162 10161 10158 ] final  156.88 input  -65.29 | X-H torsion
[ 10718 10713 10712 10709 ] final  -89.79 input   66.30 | X-H torsion
[ 10763 10752 10751 10750 ] final -151.11 input  -60.55 | X-H torsion
[ 11005 11000 10999 10996 ] final  -10.72 input  -57.11 | X-H torsion

> <Gold.Protein.ActiveResidues>
 VAL166  LYS551  ARG553  GLY616  TRP617  ASP618  TYR619  PRO620  LYS621  CYS622 
 ASP623  PHE694  ASN695  SER759  ASP760  ASP761  ALA762  ILE779  LEU786  VAL792 
 PHE793  MET794  SER795  GLU796  ALA797  LYS798  CYS799  TRP800  GLU811  SER814 

> <Gold.Protein.RotatedAtoms>
  152.5332  134.0026  159.7901 H   0  0  0  0  0  0  0  0  0  0  0  0  # atno 6907 bound_to 6896
  151.0242  133.5841  159.2675 H   0  0  0  0  0  0  0  0  0  0  0  0  # atno 6908 bound_to 6896
  151.2869  135.0737  159.9243 H   0  0  0  0  0  0  0  0  0  0  0  0  # atno 6909 bound_to 6896
  144.7383  140.3362  143.6143 H   0  0  0  0  0  0  0  0  0  0  0  0  # atno 7974 bound_to 7965
  154.7408  140.2748  155.6374 H   0  0  0  0  0  0  0  0  0  0  0  0  # atno 8008 bound_to 7997
  156.2873  140.2697  156.2061 H   0  0  0  0  0  0  0  0  0  0  0  0  # atno 8009 bound_to 7997
  155.0260  140.0371  157.2445 H   0  0  0  0  0  0  0  0  0  0  0  0  # atno 8010 bound_to 7997
  139.4822  144.4968  151.8227 H   0  0  0  0  0  0  0  0  0  0  0  0  # atno 10167 bound_to 10162
  155.9985  130.4885  150.5225 H   0  0  0  0  0  0  0  0  0  0  0  0  # atno 10718 bound_to 10713
  154.8078  135.3268  154.7385 H   0  0  0  0  0  0  0  0  0  0  0  0  # atno 10763 bound_to 10752
  153.8040  135.6901  153.4855 H   0  0  0  0  0  0  0  0  0  0  0  0  # atno 10764 bound_to 10752
  153.1835  135.4577  155.0004 H   0  0  0  0  0  0  0  0  0  0  0  0  # atno 10765 bound_to 10752
  140.7477  133.8618  155.9019 H   0  0  0  0  0  0  0  0  0  0  0  0  # atno 11005 bound_to 11000
  145.7421  139.1767  143.2370 LP  0  0  0  0  0  0  0  0  0  0  0  0  # atno 17320 bound_to 7965
  146.1126  140.7409  142.9496 LP  0  0  0  0  0  0  0  0  0  0  0  0  # atno 17321 bound_to 7965
  140.4458  144.1924  150.5894 LP  0  0  0  0  0  0  0  0  0  0  0  0  # atno 17342 bound_to 10162
  140.4636  143.2439  151.9185 LP  0  0  0  0  0  0  0  0  0  0  0  0  # atno 17343 bound_to 10162
  157.3184  131.0677  151.1950 LP  0  0  0  0  0  0  0  0  0  0  0  0  # atno 17370 bound_to 10713
  157.2871  130.6778  149.6095 LP  0  0  0  0  0  0  0  0  0  0  0  0  # atno 17371 bound_to 10713
  140.9779  134.1444  157.4520 LP  0  0  0  0  0  0  0  0  0  0  0  0  # atno 17394 bound_to 11000
  139.8793  135.0001  156.5990 LP  0  0  0  0  0  0  0  0  0  0  0  0  # atno 17395 bound_to 11000

$$$$
