#       Name:                AV-unprocessed.smi:1231
#       Creating user name   scv26
#       Creation time:       Fri Mar 27 04:23:28 2020


#       File generated by GOLD software.
#

@<TRIPOS>MOLECULE
AV-unprocessed.smi:1231
    48    49     1
SMALL
NO_CHARGES


@<TRIPOS>ATOM
      1 ****        -4.8359   2.2139  -1.4089 C.3            1 S1                 0.0000
      2 ****        -4.1667   0.9153  -0.9471 C.3            1 S1                 0.0000
      3 ****        -2.6308   1.0166  -0.9623 C.3            1 S1                 0.0000
      4 ****        -1.9973  -0.2443  -0.5979 N.3            1 S1                 0.0000
      5 ****        -0.5414  -0.1126  -0.5805 C.3            1 S1                 0.0000
      6 ****         0.2089  -1.3072   0.0384 C.3            1 S1                 0.0000
      7 ****         1.6497  -1.0854   0.0519 N.am           1 S1                 0.0000
      8 ****         2.3060  -0.3312   0.9452 C.2            1 S1                 0.0000
      9 ****         1.7485   0.2804   1.8571 O.2            1 S1                 0.0000
     10 ****         3.6298  -0.3414   0.7092 N.am           1 S1                 0.0000
     11 ****         4.6564   0.3245   1.4302 C.ar           1 S1                 0.0000
     12 ****         5.9676   0.0913   0.9567 C.ar           1 S1                 0.0000
     13 ****         7.0575   0.7052   1.6037 C.ar           1 S1                 0.0000
     14 ****         6.8077   1.5385   2.7085 C.ar           1 S1                 0.0000
     15 ****         5.4728   1.7187   3.1151 C.ar           1 S1                 0.0000
     16 ****         4.4268   1.1311   2.4967 N.ar           1 S1                 0.0000
     17 ****        -2.4539  -1.2871  -1.5150 C.3            1 S1                 0.0000
     18 ****        -3.9903  -1.4066  -1.5681 C.3            1 S1                 0.0000
     19 ****        -4.5933  -2.0738  -0.3203 C.3            1 S1                 0.0000
     20 ****        -4.5795  -0.1311  -1.8241 O.3            1 S1                 0.0000
     21 ****        -4.5689   3.0462  -0.7573 H              1 S1                 0.0000
     22 ****        -5.9219   2.1175  -1.3966 H              1 S1                 0.0000
     23 ****        -4.5357   2.4731  -2.4245 H              1 S1                 0.0000
     24 ****        -4.5075   0.6955   0.0652 H              1 S1                 0.0000
     25 ****        -2.2943   1.3256  -1.9535 H              1 S1                 0.0000
     26 ****        -2.3182   1.7995  -0.2700 H              1 S1                 0.0000
     27 ****        -0.1758   0.0662  -1.5928 H              1 S1                 0.0000
     28 ****        -0.2801   0.7783  -0.0076 H              1 S1                 0.0000
     29 ****        -0.1494  -1.4998   1.0510 H              1 S1                 0.0000
     30 ****         0.0318  -2.2171  -0.5336 H              1 S1                 0.0000
     31 ****         2.1866  -1.5509  -0.6651 H              1 S1                 0.0000
     32 ****         3.9408  -0.8964  -0.0741 H              1 S1                 0.0000
     33 ****         6.1414  -0.5524   0.1065 H              1 S1                 0.0000
     34 ****         8.0669   0.5389   1.2577 H              1 S1                 0.0000
     35 ****         7.6173   2.0267   3.2306 H              1 S1                 0.0000
     36 ****         5.2382   2.3509   3.9586 H              1 S1                 0.0000
     37 ****        -2.0845  -1.0712  -2.5187 H              1 S1                 0.0000
     38 ****        -2.0370  -2.2540  -1.2360 H              1 S1                 0.0000
     39 ****        -4.2465  -2.0377  -2.4196 H              1 S1                 0.0000
     40 ****        -4.2166  -3.0902  -0.2040 H              1 S1                 0.0000
     41 ****        -5.6793  -2.1309  -0.3970 H              1 S1                 0.0000
     42 ****        -4.3506  -1.5314   0.5933 H              1 S1                 0.0000
     43 ****        -2.2641  -0.5038   0.3302 LP             1 S1                 0.0000
     44 ****         0.7551   0.2290   1.9594 LP             1 S1                 0.0000
     45 ****         2.2892   0.8284   2.4953 LP             1 S1                 0.0000
     46 ****         3.4939   1.2883   2.8207 LP             1 S1                 0.0000
     47 ****        -4.3435   0.1369  -2.7582 LP             1 S1                 0.0000
     48 ****        -5.5717  -0.2273  -1.7456 LP             1 S1                 0.0000
@<TRIPOS>BOND
    1    1    2 1     
    2    1   21 1     
    3    1   22 1     
    4    1   23 1     
    5    2   20 1     
    6    2    3 1     
    7    2   24 1     
    8    3    4 1     
    9    3   25 1     
   10    3   26 1     
   11    4    5 1     
   12    4   17 1     
   13    5    6 1     
   14    5   27 1     
   15    5   28 1     
   16    6    7 1     
   17    6   29 1     
   18    6   30 1     
   19    7    8 am    
   20    7   31 1     
   21    8    9 2     
   22    8   10 am    
   23   10   11 1     
   24   10   32 1     
   25   11   16 ar    
   26   11   12 ar    
   27   12   13 ar    
   28   12   33 1     
   29   13   14 ar    
   30   13   34 1     
   31   14   15 ar    
   32   14   35 1     
   33   15   16 ar    
   34   15   36 1     
   35   17   18 1     
   36   17   37 1     
   37   17   38 1     
   38   18   19 1     
   39   18   20 1     
   40   18   39 1     
   41   19   40 1     
   42   19   41 1     
   43   19   42 1     
   44    4   43 1     
   45    9   44 1     
   46    9   45 1     
   47   16   46 1     
   48   20   47 1     
   49   20   48 1     
@<TRIPOS>SUBSTRUCTURE
      1 S1             1
@<TRIPOS>SET
LONE_PAIRS      STATIC     ATOMS    <user>   **** ""
6 43 44 45 46 47 48
DONOR_HYDROGENS      STATIC     ATOMS    <user>   **** ""
2 31 32
ATOM$BLUE        STATIC     ATOMS    COLORGROUP SYSTEM
6 43 44 45 46 47 48
ATOM$RED        STATIC     ATOMS    COLORGROUP SYSTEM
2 31 32
