AV-unprocessed.smi:1241|AV-procd|sdf|5215|dock5
  -GOLD-   22720 4313D 1   1.00000     0.00000
 Structure written by MMmdl.
 38 39  0  0  0  0  0  0  0  0  1 V2000
  151.1687  139.9144  157.6557 C   0  0  0  0  0  0  0  0  0  0  0  0
  150.6253  140.7544  156.1120 S   0  0  0  0  0  0  0  0  0  0  0  0
  150.6843  142.2073  156.3350 O   0  0  0  0  0  0  0  0  0  0  0  0
  151.3573  140.1599  154.9830 O   0  0  0  0  0  0  0  0  0  0  0  0
  148.9506  140.3079  155.9552 N   0  0  0  0  0  0  0  0  0  0  0  0
  148.1996  140.6736  154.7369 C   0  0  0  0  0  0  0  0  0  0  0  0
  148.0488  139.4797  153.7774 C   0  0  0  0  0  0  0  0  0  0  0  0
  147.4417  138.2595  154.4898 C   0  0  0  0  0  0  0  0  0  0  0  0
  147.3721  137.1124  153.5884 N   0  0  0  0  0  0  0  0  0  0  0  0
  146.2778  136.3679  153.3709 C   0  0  0  0  0  0  0  0  0  0  0  0
  145.1941  136.5807  153.9155 O   0  0  0  0  0  0  0  0  0  0  0  0
  146.5253  135.3831  152.4889 N   0  0  0  0  0  0  0  0  0  0  0  0
  145.6386  134.3710  152.0325 C   0  0  0  0  0  0  0  0  0  0  0  0
  146.2597  133.1680  151.6266 C   0  0  0  0  0  0  0  0  0  0  0  0
  145.4661  132.1003  151.1638 C   0  0  0  0  0  0  0  0  0  0  0  0
  144.0699  132.2629  151.1200 C   0  0  0  0  0  0  0  0  0  0  0  0
  143.5320  133.4926  151.5423 C   0  0  0  0  0  0  0  0  0  0  0  0
  144.2907  134.5173  151.9852 N   0  0  0  0  0  0  0  0  0  0  0  0
  148.2977  137.9111  155.7159 C   0  0  0  0  0  0  0  0  0  0  0  0
  148.4370  139.1171  156.6615 C   0  0  0  0  0  0  0  0  0  0  0  0
  152.2243  140.1273  157.8229 H   0  0  0  0  0  0  0  0  0  0  0  0
  151.0367  138.8383  157.5592 H   0  0  0  0  0  0  0  0  0  0  0  0
  150.5948  140.2869  158.5023 H   0  0  0  0  0  0  0  0  0  0  0  0
  147.2116  141.0259  155.0357 H   0  0  0  0  0  0  0  0  0  0  0  0
  148.6813  141.5084  154.2287 H   0  0  0  0  0  0  0  0  0  0  0  0
  147.4203  139.7724  152.9355 H   0  0  0  0  0  0  0  0  0  0  0  0
  149.0180  139.2180  153.3541 H   0  0  0  0  0  0  0  0  0  0  0  0
  146.4361  138.5093  154.8338 H   0  0  0  0  0  0  0  0  0  0  0  0
  148.2196  136.8680  153.0976 H   0  0  0  0  0  0  0  0  0  0  0  0
  147.4585  135.3463  152.1067 H   0  0  0  0  0  0  0  0  0  0  0  0
  147.3338  133.0593  151.6679 H   0  0  0  0  0  0  0  0  0  0  0  0
  145.9214  131.1730  150.8493 H   0  0  0  0  0  0  0  0  0  0  0  0
  143.4283  131.4669  150.7725 H   0  0  0  0  0  0  0  0  0  0  0  0
  142.4649  133.6581  151.5259 H   0  0  0  0  0  0  0  0  0  0  0  0
  147.8500  137.0768  156.2572 H   0  0  0  0  0  0  0  0  0  0  0  0
  149.2832  137.5725  155.3977 H   0  0  0  0  0  0  0  0  0  0  0  0
  149.0825  138.8662  157.5027 H   0  0  0  0  0  0  0  0  0  0  0  0
  147.4624  139.3623  157.0848 H   0  0  0  0  0  0  0  0  0  0  0  0
  1  2  1  0  0  0  0
  1 21  1  0  0  0  0
  1 22  1  0  0  0  0
  1 23  1  0  0  0  0
  2  3  2  0  0  0  0
  2  4  2  0  0  0  0
  2  5  1  0  0  0  0
  5 20  1  0  0  0  0
  5  6  1  0  0  0  0
  6  7  1  0  0  0  0
  6 24  1  0  0  0  0
  6 25  1  0  0  0  0
  7  8  1  0  0  0  0
  7 26  1  0  0  0  0
  7 27  1  0  0  0  0
  8  9  1  0  0  0  0
  8 19  1  0  0  0  0
  8 28  1  0  0  0  0
  9 10  1  0  0  0  0
  9 29  1  0  0  0  0
 10 11  2  0  0  0  0
 10 12  1  0  0  0  0
 12 13  1  0  0  0  0
 12 30  1  0  0  0  0
 13 18  1  0  0  0  0
 13 14  2  0  0  0  0
 14 15  1  0  0  0  0
 14 31  1  0  0  0  0
 15 16  2  0  0  0  0
 15 32  1  0  0  0  0
 16 17  1  0  0  0  0
 16 33  1  0  0  0  0
 17 18  2  0  0  0  0
 17 34  1  0  0  0  0
 19 20  1  0  0  0  0
 19 35  1  0  0  0  0
 19 36  1  0  0  0  0
 20 37  1  0  0  0  0
 20 38  1  0  0  0  0
M  END
> <s_m_source_file>
AV-unprocessed.smi

> <i_m_source_file_index>
1241

> <i_lp_mmshare_version>
43012

> <i_f3d_flags>
0

> <s_epik_input>
W0NIM11TKD1PKSg9TylOMVtDSDJdW0NIMl1bQ0hdKFtDSDJdW0NIMl0xKVtOSF1DKD1PKVtOSF1jMltjSF1bY0hdW2NIXVtjSF1uMg==

> <s_epik_cmdline>
J2VwaWtfcHl0aG9uJywgJy1waCcsICc3LjAnLCAnLXRuJywgJzgnLCAnLW1hJywgJzIwMCcsICctbWV0YWxfYmluZGluZycsICctaW1hZScsICc8aW5maWxlLm1hZT4nLCAnLW9tYWUnLCAnPG91dGZpbGUubWFlPic=

> <r_lp_tautomer_probability>
1

> <r_epik_Ionization_Penalty>
4.62702e-05

> <r_epik_Ionization_Penalty_Charging>
0

> <r_epik_Ionization_Penalty_Neutral>
4.62702e-05

> <r_epik_State_Penalty>
-0

> <r_epik_Charging_Adjusted_Penalty>
0

> <i_epik_Tot_Q>
0

> <i_epik_Tot_abs_Q>
0

> <r_epik_Metal_State_Penalty>
-0

> <b_epik_Metal_Only>
0

> <s_lp_Force_Field>
OPLS_2005

> <r_lp_Energy>
3.28241

> <b_lp_Chiralities_Consistent>
1

> <s_lp_Variant>
AV-unprocessed.smi:1241-1

> <Gold.Version>
5.8.1

> <Gold.Id.Protein>
6NUR|6NUR_protein|mol2

> <Gold.PLP.Fitness>
35.6071

> <Gold.PLP.PLP>
-24.6898

> <Gold.PLP.part.hbond>
-2.9062

> <Gold.PLP.part.metal>
0.0000

> <Gold.PLP.part.buried>
-4.2933

> <Gold.PLP.part.nonpolar>
-18.1742

> <Gold.PLP.part.repulsive>
0.3653

> <Gold.PLP.ligand.clash>
0.0000

> <Gold.PLP.ligand.torsion>
1.4712

> <Gold.PLP.Chemscore.Hbond>
2.9440

> <Gold.PLP.Chemscore.CHOScore>
0.9916

> <Gold.PLP.Chemscore.Metal>
0.0000

> <Gold.Chemscore.Hbonds>
donor molecule, donor type, donor heavy atom, donor atom, acceptor molecule, acceptor atom, score
      L1  H     9    29       P1  7948  1.00
      L1  H    12    30       P1  7948  0.94
      P1  H  7989  7998       L1     4  1.00
      L1  C    17    34       P1 10186  0.92

> <Gold.PLP.Chemscore.Internal.Correction>
2.0529

> <Gold.Rescore>
     Score         DG    S(hbond)    S(metal)    S(lipo)     H(rot)  DE(clash)    DE(int)     intcor
     15.53     -18.23       2.91        0.00      47.85       1.00       0.04       2.66       ----

> <Gold.Chemscore.Fitness>
15.5346

> <Gold.Chemscore.DG>
-18.2314

> <Gold.Chemscore.ZeroCoef>
-5.4800

> <Gold.Chemscore.Hbond>
2.9079

> <Gold.Chemscore.Metal>
0.0000

> <Gold.Chemscore.Lipo>
47.8548

> <Gold.Chemscore.Internal_Hbond>
0.0000

> <Gold.Chemscore.DEClash>
0.0354

> <Gold.Chemscore.DEInternal>
2.6615

> <Gold.Chemscore.Rot>
1.0000

> <Gold.Chemscore.Internal.Correction>
   9.000000E+99

> <Gold.Chemscore.Hbonds>
donor molecule, donor type, donor heavy atom, donor atom, acceptor molecule, acceptor atom, score
      L1  H     9    29       P1  7948  0.92
      L1  H    12    30       P1  7948  0.91
      P1  H  7989  7998       L1     4  0.98

> <Gold.Chemscore.Hbond.Weighted>
-9.7124

> <Gold.Chemscore.Metal.Weighted>
-0.0000

> <Gold.Chemscore.Lipo.Weighted>
-5.5990

> <Gold.Chemscore.Internal_Hbond.Weighted>
0.0000

> <Gold.Chemscore.DEClash.Weighted>
0.0354

> <Gold.Chemscore.DEInternal.Weighted>
2.6615

> <Gold.Chemscore.Rot.Weighted>
2.5600

> <Gold.Chemscore.Internal.Correction.Weighted>
   9.000000E+99

> <Gold.Protein.RotatedTorsions>
[ 6907 6896 6895 6894 ] final  -24.90 input  -60.11 | X-H torsion
[ 7974 7965 7964 7962 ] final   63.52 input  175.53 | X-H torsion
[ 8008 7997 7996 7995 ] final   58.63 input   59.86 | X-H torsion
[ 10167 10162 10161 10158 ] final -105.90 input  -65.29 | X-H torsion
[ 10718 10713 10712 10709 ] final  -34.59 input   66.30 | X-H torsion
[ 10763 10752 10751 10750 ] final   80.57 input  -60.55 | X-H torsion
[ 11005 11000 10999 10996 ] final  103.94 input  -57.11 | X-H torsion

> <Gold.Protein.ActiveResidues>
 VAL166  LYS551  ARG553  GLY616  TRP617  ASP618  TYR619  PRO620  LYS621  CYS622 
 ASP623  PHE694  ASN695  SER759  ASP760  ASP761  ALA762  ILE779  LEU786  VAL792 
 PHE793  MET794  SER795  GLU796  ALA797  LYS798  CYS799  TRP800  GLU811  SER814 

> <Gold.Protein.RotatedAtoms>
  151.1829  135.0369  159.8799 H   0  0  0  0  0  0  0  0  0  0  0  0  # atno 6907 bound_to 6896
  152.5444  134.1042  159.8341 H   0  0  0  0  0  0  0  0  0  0  0  0  # atno 6908 bound_to 6896
  151.1161  133.5090  159.2636 H   0  0  0  0  0  0  0  0  0  0  0  0  # atno 6909 bound_to 6896
  145.8609  139.3314  143.0819 H   0  0  0  0  0  0  0  0  0  0  0  0  # atno 7974 bound_to 7965
  155.5532  140.3487  155.4473 H   0  0  0  0  0  0  0  0  0  0  0  0  # atno 8008 bound_to 7997
  156.0568  140.1331  157.0013 H   0  0  0  0  0  0  0  0  0  0  0  0  # atno 8009 bound_to 7997
  154.4460  140.0993  156.6443 H   0  0  0  0  0  0  0  0  0  0  0  0  # atno 8010 bound_to 7997
  140.1935  143.3873  152.1187 H   0  0  0  0  0  0  0  0  0  0  0  0  # atno 10167 bound_to 10162
  156.3487  130.4305  149.7723 H   0  0  0  0  0  0  0  0  0  0  0  0  # atno 10718 bound_to 10713
  153.1045  135.4797  154.8926 H   0  0  0  0  0  0  0  0  0  0  0  0  # atno 10763 bound_to 10752
  154.7415  135.3083  154.8723 H   0  0  0  0  0  0  0  0  0  0  0  0  # atno 10764 bound_to 10752
  153.9329  135.6842  153.4798 H   0  0  0  0  0  0  0  0  0  0  0  0  # atno 10765 bound_to 10752
  139.8787  134.9282  156.5285 H   0  0  0  0  0  0  0  0  0  0  0  0  # atno 11005 bound_to 11000
  145.9249  140.9089  143.0386 LP  0  0  0  0  0  0  0  0  0  0  0  0  # atno 17320 bound_to 7965
  144.6726  140.1339  143.7442 LP  0  0  0  0  0  0  0  0  0  0  0  0  # atno 17321 bound_to 7965
  139.5246  144.7086  151.5278 LP  0  0  0  0  0  0  0  0  0  0  0  0  # atno 17342 bound_to 10162
  140.6439  143.8833  150.6718 LP  0  0  0  0  0  0  0  0  0  0  0  0  # atno 17343 bound_to 10162
  156.4932  130.8094  151.3103 LP  0  0  0  0  0  0  0  0  0  0  0  0  # atno 17370 bound_to 10713
  157.7458  130.9969  150.2795 LP  0  0  0  0  0  0  0  0  0  0  0  0  # atno 17371 bound_to 10713
  140.8398  133.8214  155.9064 LP  0  0  0  0  0  0  0  0  0  0  0  0  # atno 17394 bound_to 11000
  140.9248  134.2096  157.4903 LP  0  0  0  0  0  0  0  0  0  0  0  0  # atno 17395 bound_to 11000

$$$$
