#       Name:                AV-unprocessed.smi:1643
#       Creating user name   scv26
#       Creation time:       Fri Mar 27 07:26:07 2020


#       File generated by GOLD software.
#

@<TRIPOS>MOLECULE
AV-unprocessed.smi:1643
    59    61     1
SMALL
NO_CHARGES


@<TRIPOS>ATOM
      1 ****        -2.2723  -1.6976   4.4690 C.3            1 S1                 0.0000
      2 ****        -3.2546  -1.3861   3.3368 C.2            1 S1                 0.0000
      3 ****        -3.8573  -2.3266   2.8199 O.2            1 S1                 0.0000
      4 ****        -3.4356  -0.0999   2.9473 N.am           1 S1                 0.0000
      5 ****        -4.4403   0.2600   1.9359 C.3            1 S1                 0.0000
      6 ****        -3.8188   0.4676   0.5351 C.3            1 S1                 0.0000
      7 ****        -2.2740   0.5096   0.4821 C.3            1 S1                 0.0000
      8 ****        -1.6360   1.6476   1.2100 N.4            1 S1                 1.0000
      9 ****        -0.1832   1.4357   1.4565 C.3            1 S1                 0.0000
     10 ****         0.6554   1.4376   0.1629 C.3            1 S1                 0.0000
     11 ****         0.5888   2.7230  -0.4251 O.3            1 S1                 0.0000
     12 ****         2.1286   1.0760   0.4326 C.3            1 S1                 0.0000
     13 ****         2.9162   1.0258  -0.7860 N.pl3          1 S1                 0.0000
     14 ****         3.8246   1.9262  -1.2085 C.2            1 S1                 0.0000
     15 ****         4.4321   1.6806  -2.3657 N.2            1 S1                 0.0000
     16 ****         3.8533   0.4789  -2.7359 C.ar           1 S1                 0.0000
     17 ****         4.0616  -0.3274  -3.8762 C.ar           1 S1                 0.0000
     18 ****         3.3477  -1.5344  -4.0508 C.ar           1 S1                 0.0000
     19 ****         3.6018  -2.3697  -5.2933 C.3            1 S1                 0.0000
     20 ****         2.4077  -1.9519  -3.0744 C.ar           1 S1                 0.0000
     21 ****         1.6286  -3.2447  -3.2411 C.3            1 S1                 0.0000
     22 ****         2.1882  -1.1590  -1.9287 C.ar           1 S1                 0.0000
     23 ****         2.9034   0.0408  -1.7676 C.ar           1 S1                 0.0000
     24 ****        -2.3490   2.1332   2.4270 C.3            1 S1                 0.0000
     25 ****        -2.6685   1.0404   3.4797 C.3            1 S1                 0.0000
     26 ****        -2.4645  -1.0689   5.3390 H              1 S1                 0.0000
     27 ****        -1.2445  -1.5448   4.1395 H              1 S1                 0.0000
     28 ****        -2.3692  -2.7370   4.7847 H              1 S1                 0.0000
     29 ****        -5.2416  -0.4785   1.8758 H              1 S1                 0.0000
     30 ****        -4.9506   1.1692   2.2557 H              1 S1                 0.0000
     31 ****        -4.1483  -0.3521  -0.1044 H              1 S1                 0.0000
     32 ****        -4.2305   1.3702   0.0823 H              1 S1                 0.0000
     33 ****        -1.8716  -0.4383   0.8424 H              1 S1                 0.0000
     34 ****        -1.9776   0.5724  -0.5647 H              1 S1                 0.0000
     35 ****         0.2016   2.2149   2.1162 H              1 S1                 0.0000
     36 ****        -0.0484   0.4946   1.9920 H              1 S1                 0.0000
     37 ****         0.2534   0.7165  -0.5477 H              1 S1                 0.0000
     38 ****         1.0328   3.3388   0.1382 H              1 S1                 0.0000
     39 ****         2.5829   1.7945   1.1167 H              1 S1                 0.0000
     40 ****         2.1946   0.1002   0.9155 H              1 S1                 0.0000
     41 ****         4.0503   2.8144  -0.6366 H              1 S1                 0.0000
     42 ****         4.7775  -0.0093  -4.6199 H              1 S1                 0.0000
     43 ****         3.9151  -3.3777  -5.0204 H              1 S1                 0.0000
     44 ****         4.3864  -1.9339  -5.9128 H              1 S1                 0.0000
     45 ****         2.6967  -2.4389  -5.8972 H              1 S1                 0.0000
     46 ****         0.9383  -3.4030  -2.4121 H              1 S1                 0.0000
     47 ****         2.3072  -4.0973  -3.2785 H              1 S1                 0.0000
     48 ****         1.0458  -3.2246  -4.1623 H              1 S1                 0.0000
     49 ****         1.4758  -1.4658  -1.1775 H              1 S1                 0.0000
     50 ****        -1.7627   2.9221   2.8994 H              1 S1                 0.0000
     51 ****        -3.2600   2.6418   2.1120 H              1 S1                 0.0000
     52 ****        -3.2365   1.4804   4.3003 H              1 S1                 0.0000
     53 ****        -1.7187   0.7219   3.9076 H              1 S1                 0.0000
     54 ****        -1.6802   2.4306   0.5728 H              1 S1                 0.0000
     55 ****        -3.6983  -3.2598   3.1420 LP             1 S1                 0.0000
     56 ****        -4.5061  -2.1574   2.0780 LP             1 S1                 0.0000
     57 ****        -0.3677   2.9946  -0.5321 LP             1 S1                 0.0000
     58 ****         1.0328   2.7063  -1.3209 LP             1 S1                 0.0000
     59 ****         5.1247   2.2216  -2.8428 LP             1 S1                 0.0000
@<TRIPOS>BOND
    1    1    2 1     
    2    1   26 1     
    3    1   27 1     
    4    1   28 1     
    5    2    3 2     
    6    2    4 am    
    7    4   25 1     
    8    4    5 1     
    9    5    6 1     
   10    5   29 1     
   11    5   30 1     
   12    6    7 1     
   13    6   31 1     
   14    6   32 1     
   15    7    8 1     
   16    7   33 1     
   17    7   34 1     
   18    8    9 1     
   19    8   24 1     
   20    8   54 1     
   21    9   10 1     
   22    9   35 1     
   23    9   36 1     
   24   10   11 1     
   25   10   12 1     
   26   10   37 1     
   27   11   38 1     
   28   12   13 1     
   29   12   39 1     
   30   12   40 1     
   31   13   23 1     
   32   13   14 1     
   33   14   15 2     
   34   14   41 1     
   35   15   16 1     
   36   16   23 ar    
   37   16   17 ar    
   38   17   18 ar    
   39   17   42 1     
   40   18   19 1     
   41   18   20 ar    
   42   19   43 1     
   43   19   44 1     
   44   19   45 1     
   45   20   21 1     
   46   20   22 ar    
   47   21   46 1     
   48   21   47 1     
   49   21   48 1     
   50   22   23 ar    
   51   22   49 1     
   52   24   25 1     
   53   24   50 1     
   54   24   51 1     
   55   25   52 1     
   56   25   53 1     
   57    3   55 1     
   58    3   56 1     
   59   11   57 1     
   60   11   58 1     
   61   15   59 1     
@<TRIPOS>SUBSTRUCTURE
      1 S1             1
@<TRIPOS>SET
LONE_PAIRS      STATIC     ATOMS    <user>   **** ""
5 55 56 57 58 59
DONOR_HYDROGENS      STATIC     ATOMS    <user>   **** ""
2 54 38
ATOM$BLUE        STATIC     ATOMS    COLORGROUP SYSTEM
5 55 56 57 58 59
ATOM$RED        STATIC     ATOMS    COLORGROUP SYSTEM
2 54 38
