AV-unprocessed.smi:2286|AV-procd|sdf|9204|dock6
  -GOLD-   2272012423D 1   1.00000     0.00000
 Structure written by MMmdl.
 46 47  0  0  0  0  0  0  0  0  1 V2000
  142.5853  146.6705  155.0144 C   0  0  0  0  0  0  0  0  0  0  0  0
  142.9995  145.2224  155.1719 C   0  0  0  0  0  0  0  0  0  0  0  0
  142.0400  144.2147  155.3872 C   0  0  0  0  0  0  0  0  0  0  0  0
  142.4899  142.8869  155.5247 C   0  0  0  0  0  0  0  0  0  0  0  0
  141.5116  141.7543  155.7538 C   0  0  0  0  0  0  0  0  0  0  0  0
  143.7928  142.5393  155.4560 N   0  0  0  0  0  0  0  0  0  0  0  0
  144.7259  143.5014  155.2493 C   0  0  0  0  0  0  0  0  0  0  0  0
  146.1191  143.2416  155.1578 N   0  0  0  0  0  0  0  0  0  0  0  0
  146.7339  142.0621  154.9601 C   0  0  0  0  0  0  0  0  0  0  0  0
  146.1704  140.9722  154.8529 O   0  0  0  0  0  0  0  0  0  0  0  0
  148.0646  142.2155  154.8899 N   0  0  0  0  0  0  0  0  0  0  0  0
  149.0264  141.1349  154.6865 C   0  0  0  0  0  0  0  0  0  0  0  0
  150.2847  141.2766  155.5515 C   0  0  0  0  0  0  0  0  0  0  0  0
  151.2590  140.5425  155.3782 O   0  0  0  0  0  0  0  0  0  0  0  0
  150.2342  142.2199  156.5044 N   0  0  0  0  0  0  0  0  0  0  0  0
  151.2986  142.5191  157.4577 C   0  0  0  0  0  0  0  0  0  0  0  0
  150.8923  142.0824  158.8813 C   0  0  0  0  0  0  0  0  0  0  0  0
  151.9609  142.4675  159.9172 C   0  0  0  0  0  0  0  0  0  0  0  0
  152.2696  143.9720  159.8693 C   0  0  0  0  0  0  0  0  0  0  0  0
  152.6852  144.4066  158.4554 C   0  0  0  0  0  0  0  0  0  0  0  0
  151.6156  144.0265  157.4184 C   0  0  0  0  0  0  0  0  0  0  0  0
  144.3596  144.8586  155.1045 C   0  0  0  0  0  0  0  0  0  0  0  0
  141.4999  146.7715  154.9830 H   0  0  0  0  0  0  0  0  0  0  0  0
  142.9916  147.0823  154.0904 H   0  0  0  0  0  0  0  0  0  0  0  0
  142.9599  147.2627  155.8496 H   0  0  0  0  0  0  0  0  0  0  0  0
  140.9876  144.4522  155.4447 H   0  0  0  0  0  0  0  0  0  0  0  0
  140.5321  142.1334  156.0471 H   0  0  0  0  0  0  0  0  0  0  0  0
  141.8686  141.0923  156.5435 H   0  0  0  0  0  0  0  0  0  0  0  0
  141.3937  141.1695  154.8414 H   0  0  0  0  0  0  0  0  0  0  0  0
  146.7166  144.0513  155.2336 H   0  0  0  0  0  0  0  0  0  0  0  0
  148.4438  143.1446  154.9981 H   0  0  0  0  0  0  0  0  0  0  0  0
  148.5539  140.1688  154.8732 H   0  0  0  0  0  0  0  0  0  0  0  0
  149.3255  141.1384  153.6384 H   0  0  0  0  0  0  0  0  0  0  0  0
  149.3926  142.7735  156.5755 H   0  0  0  0  0  0  0  0  0  0  0  0
  152.1993  141.9759  157.1648 H   0  0  0  0  0  0  0  0  0  0  0  0
  149.9433  142.5470  159.1530 H   0  0  0  0  0  0  0  0  0  0  0  0
  150.7278  141.0047  158.9139 H   0  0  0  0  0  0  0  0  0  0  0  0
  151.6260  142.1888  160.9168 H   0  0  0  0  0  0  0  0  0  0  0  0
  152.8733  141.9010  159.7277 H   0  0  0  0  0  0  0  0  0  0  0  0
  151.3901  144.5362  160.1821 H   0  0  0  0  0  0  0  0  0  0  0  0
  153.0605  144.2124  160.5801 H   0  0  0  0  0  0  0  0  0  0  0  0
  152.8577  145.4829  158.4334 H   0  0  0  0  0  0  0  0  0  0  0  0
  153.6333  143.9359  158.1924 H   0  0  0  0  0  0  0  0  0  0  0  0
  151.9545  144.3112  156.4215 H   0  0  0  0  0  0  0  0  0  0  0  0
  150.7082  144.6008  157.6118 H   0  0  0  0  0  0  0  0  0  0  0  0
  145.1129  145.6158  154.9399 H   0  0  0  0  0  0  0  0  0  0  0  0
  1  2  1  0  0  0  0
  1 23  1  0  0  0  0
  1 24  1  0  0  0  0
  1 25  1  0  0  0  0
  2 22  1  0  0  0  0
  2  3  2  0  0  0  0
  3  4  1  0  0  0  0
  3 26  1  0  0  0  0
  4  5  1  0  0  0  0
  4  6  2  0  0  0  0
  5 27  1  0  0  0  0
  5 28  1  0  0  0  0
  5 29  1  0  0  0  0
  6  7  1  0  0  0  0
  7  8  1  0  0  0  0
  7 22  2  0  0  0  0
  8  9  1  0  0  0  0
  8 30  1  0  0  0  0
  9 10  2  0  0  0  0
  9 11  1  0  0  0  0
 11 12  1  0  0  0  0
 11 31  1  0  0  0  0
 12 13  1  0  0  0  0
 12 32  1  0  0  0  0
 12 33  1  0  0  0  0
 13 14  2  0  0  0  0
 13 15  1  0  0  0  0
 15 16  1  0  0  0  0
 15 34  1  0  0  0  0
 16 21  1  0  0  0  0
 16 17  1  0  0  0  0
 16 35  1  0  0  0  0
 17 18  1  0  0  0  0
 17 36  1  0  0  0  0
 17 37  1  0  0  0  0
 18 19  1  0  0  0  0
 18 38  1  0  0  0  0
 18 39  1  0  0  0  0
 19 20  1  0  0  0  0
 19 40  1  0  0  0  0
 19 41  1  0  0  0  0
 20 21  1  0  0  0  0
 20 42  1  0  0  0  0
 20 43  1  0  0  0  0
 21 44  1  0  0  0  0
 21 45  1  0  0  0  0
 22 46  1  0  0  0  0
M  END
> <s_m_source_file>
AV-unprocessed.smi

> <i_m_source_file_index>
2286

> <i_lp_mmshare_version>
43012

> <i_f3d_flags>
0

> <s_epik_input>
W0NIM11jMVtjSF1jKFtDSDNdKW5jKFtjSF0xKVtOSF1DKD1PKVtOSF1bQ0gyXUMoPU8pW05IXVtDSF0yW0NIMl1bQ0gyXVtDSDJdW0NIMl1bQ0gyXTI=

> <s_epik_cmdline>
J2VwaWtfcHl0aG9uJywgJy1waCcsICc3LjAnLCAnLXRuJywgJzgnLCAnLW1hJywgJzIwMCcsICctbWV0YWxfYmluZGluZycsICctaW1hZScsICc8aW5maWxlLm1hZT4nLCAnLW9tYWUnLCAnPG91dGZpbGUubWFlPic=

> <r_lp_tautomer_probability>
1

> <r_epik_Ionization_Penalty>
0.000219548

> <r_epik_Ionization_Penalty_Charging>
0

> <r_epik_Ionization_Penalty_Neutral>
0.000219548

> <r_epik_State_Penalty>
-0

> <r_epik_Charging_Adjusted_Penalty>
0

> <i_epik_Tot_Q>
0

> <i_epik_Tot_abs_Q>
0

> <r_epik_Metal_State_Penalty>
-0

> <b_epik_Metal_Only>
0

> <s_lp_Force_Field>
OPLS_2005

> <r_lp_Energy>
6.54337

> <b_lp_Chiralities_Consistent>
1

> <s_lp_Variant>
AV-unprocessed.smi:2286-1

> <Gold.Version>
5.8.1

> <Gold.Id.Protein>
6NUR|6NUR_protein|mol2

> <Gold.PLP.Fitness>
48.4664

> <Gold.PLP.PLP>
-41.8266

> <Gold.PLP.part.hbond>
-3.5251

> <Gold.PLP.part.metal>
0.0000

> <Gold.PLP.part.buried>
-5.4562

> <Gold.PLP.part.nonpolar>
-32.9133

> <Gold.PLP.part.repulsive>
0.6237

> <Gold.PLP.ligand.clash>
0.0000

> <Gold.PLP.ligand.torsion>
0.3525

> <Gold.PLP.Chemscore.Hbond>
2.4458

> <Gold.PLP.Chemscore.CHOScore>
0.0000

> <Gold.PLP.Chemscore.Metal>
0.0000

> <Gold.Chemscore.Hbonds>
donor molecule, donor type, donor heavy atom, donor atom, acceptor molecule, acceptor atom, score
      L1  H    11    31       P1  8028  1.00
      L1  H    15    34       P1  8028  0.34
      P1  H  7989  7998       L1    14  0.88

> <Gold.PLP.Chemscore.Internal.Correction>
0.0072

> <Gold.Rescore>
     Score         DG    S(hbond)    S(metal)    S(lipo)     H(rot)  DE(clash)    DE(int)     intcor
     18.38     -21.13       2.09        0.00     106.67       1.48       0.91       1.84       ----

> <Gold.Chemscore.Fitness>
18.3847

> <Gold.Chemscore.DG>
-21.1345

> <Gold.Chemscore.ZeroCoef>
-5.4800

> <Gold.Chemscore.Hbond>
2.0885

> <Gold.Chemscore.Metal>
0.0000

> <Gold.Chemscore.Lipo>
106.6672

> <Gold.Chemscore.Internal_Hbond>
0.0000

> <Gold.Chemscore.DEClash>
0.9089

> <Gold.Chemscore.DEInternal>
1.8409

> <Gold.Chemscore.Rot>
1.4849

> <Gold.Chemscore.Internal.Correction>
   9.000000E+99

> <Gold.Chemscore.Hbonds>
donor molecule, donor type, donor heavy atom, donor atom, acceptor molecule, acceptor atom, score
      L1  H    11    31       P1  8028  1.00
      L1  H    15    34       P1  8028  0.34
      P1  H  7989  7998       L1    14  0.26

> <Gold.Chemscore.Hbond.Weighted>
-6.9756

> <Gold.Chemscore.Metal.Weighted>
-0.0000

> <Gold.Chemscore.Lipo.Weighted>
-12.4801

> <Gold.Chemscore.Internal_Hbond.Weighted>
0.0000

> <Gold.Chemscore.DEClash.Weighted>
0.9089

> <Gold.Chemscore.DEInternal.Weighted>
1.8409

> <Gold.Chemscore.Rot.Weighted>
3.8012

> <Gold.Chemscore.Internal.Correction.Weighted>
   9.000000E+99

> <Gold.Protein.RotatedTorsions>
[ 6907 6896 6895 6894 ] final   68.19 input  -60.11 | X-H torsion
[ 7974 7965 7964 7962 ] final -132.21 input  175.53 | X-H torsion
[ 8008 7997 7996 7995 ] final -114.76 input   59.86 | X-H torsion
[ 10167 10162 10161 10158 ] final   46.53 input  -65.29 | X-H torsion
[ 10718 10713 10712 10709 ] final  -44.52 input   66.30 | X-H torsion
[ 10763 10752 10751 10750 ] final -128.79 input  -60.55 | X-H torsion
[ 11005 11000 10999 10996 ] final  -49.37 input  -57.11 | X-H torsion

> <Gold.Protein.ActiveResidues>
 VAL166  LYS551  ARG553  GLY616  TRP617  ASP618  TYR619  PRO620  LYS621  CYS622 
 ASP623  PHE694  ASN695  SER759  ASP760  ASP761  ALA762  ILE779  LEU786  VAL792 
 PHE793  MET794  SER795  GLU796  ALA797  LYS798  CYS799  TRP800  GLU811  SER814 

> <Gold.Protein.RotatedAtoms>
  152.4603  134.5198  159.9778 H   0  0  0  0  0  0  0  0  0  0  0  0  # atno 6907 bound_to 6896
  151.5249  133.3454  159.2915 H   0  0  0  0  0  0  0  0  0  0  0  0  # atno 6908 bound_to 6896
  150.8564  134.7934  159.7111 H   0  0  0  0  0  0  0  0  0  0  0  0  # atno 6909 bound_to 6896
  144.9306  140.7124  143.4908 H   0  0  0  0  0  0  0  0  0  0  0  0  # atno 7974 bound_to 7965
  155.0413  140.0392  157.2510 H   0  0  0  0  0  0  0  0  0  0  0  0  # atno 8008 bound_to 7997
  154.7214  140.2712  155.6514 H   0  0  0  0  0  0  0  0  0  0  0  0  # atno 8009 bound_to 7997
  156.2817  140.2702  156.1886 H   0  0  0  0  0  0  0  0  0  0  0  0  # atno 8010 bound_to 7997
  140.3129  144.2798  150.6196 H   0  0  0  0  0  0  0  0  0  0  0  0  # atno 10167 bound_to 10162
  156.2377  130.4177  149.8797 H   0  0  0  0  0  0  0  0  0  0  0  0  # atno 10718 bound_to 10713
  154.8757  135.3917  154.3814 H   0  0  0  0  0  0  0  0  0  0  0  0  # atno 10763 bound_to 10752
  153.4561  135.7028  153.6084 H   0  0  0  0  0  0  0  0  0  0  0  0  # atno 10764 bound_to 10752
  153.4603  135.3813  155.2303 H   0  0  0  0  0  0  0  0  0  0  0  0  # atno 10765 bound_to 10752
  141.0755  133.6667  156.3575 H   0  0  0  0  0  0  0  0  0  0  0  0  # atno 11005 bound_to 11000
  145.3148  139.1807  143.4619 LP  0  0  0  0  0  0  0  0  0  0  0  0  # atno 17320 bound_to 7965
  146.3245  140.3157  142.8630 LP  0  0  0  0  0  0  0  0  0  0  0  0  # atno 17321 bound_to 7965
  140.5552  143.2200  151.7860 LP  0  0  0  0  0  0  0  0  0  0  0  0  # atno 17342 bound_to 10162
  139.4890  144.4423  151.9750 LP  0  0  0  0  0  0  0  0  0  0  0  0  # atno 17343 bound_to 10162
  156.6389  130.8697  151.3510 LP  0  0  0  0  0  0  0  0  0  0  0  0  # atno 17370 bound_to 10713
  157.7162  130.9500  150.1263 LP  0  0  0  0  0  0  0  0  0  0  0  0  # atno 17371 bound_to 10713
  140.5583  134.5960  157.5426 LP  0  0  0  0  0  0  0  0  0  0  0  0  # atno 17394 bound_to 11000
  139.9567  134.7522  156.0326 LP  0  0  0  0  0  0  0  0  0  0  0  0  # atno 17395 bound_to 11000

$$$$
