AV-unprocessed.smi:760|AV-procd|sdf|3627|dock1
  -GOLD-   22720 1 23D 1   1.00000     0.00000
 Structure written by MMmdl.
 44 45  0  0  0  0  0  0  0  0  2 V2000
  152.8957  142.2959  159.2345 C   0  0  0  0  0  0  0  0  0  0  0  0
  152.3015  143.4934  159.3659 C   0  0  0  0  0  0  0  0  0  0  0  0
  152.2141  144.2028  160.7057 C   0  0  0  0  0  0  0  0  0  0  0  0
  151.7082  144.2263  158.1722 C   0  0  0  0  0  0  0  0  0  0  0  0
  150.6617  143.4389  157.4685 N   0  3  2  0  0  0  0  0  0  0  0  0
  149.7835  142.7223  158.4298 C   0  0  0  0  0  0  0  0  0  0  0  0
  148.6127  142.0283  157.7151 C   0  0  0  0  0  0  0  0  0  0  0  0
  149.1208  141.0575  156.6392 C   0  0  1  0  0  0  0  0  0  0  0  0
  147.9897  140.4704  155.9267 N   0  0  0  0  0  0  0  0  0  0  0  0
  148.0558  139.8860  154.7217 C   0  0  0  0  0  0  0  0  0  0  0  0
  149.0973  139.7786  154.0744 O   0  0  0  0  0  0  0  0  0  0  0  0
  146.8499  139.4484  154.3253 N   0  0  0  0  0  0  0  0  0  0  0  0
  146.5351  138.7800  153.1158 C   0  0  0  0  0  0  0  0  0  0  0  0
  146.8401  139.1484  151.7746 C   0  0  0  0  0  0  0  0  0  0  0  0
  146.3721  138.2528  150.9181 N   0  0  0  0  0  0  0  0  0  0  0  0
  145.7692  137.3126  151.6853 N   0  0  0  0  0  0  0  0  0  0  0  0
  145.1446  136.1723  151.0496 C   0  0  0  0  0  0  0  0  0  0  0  0
  145.8531  137.6034  153.0323 C   0  0  0  0  0  0  0  0  0  0  0  0
  150.0471  141.8126  155.6699 C   0  0  0  0  0  0  0  0  0  0  0  0
  151.1866  142.5246  156.4185 C   0  0  0  0  0  0  0  0  0  0  0  0
  153.3257  141.7855  160.0842 H   0  0  0  0  0  0  0  0  0  0  0  0
  152.9621  141.8067  158.2735 H   0  0  0  0  0  0  0  0  0  0  0  0
  152.7955  145.1247  160.6767 H   0  0  0  0  0  0  0  0  0  0  0  0
  152.6109  143.5817  161.5094 H   0  0  0  0  0  0  0  0  0  0  0  0
  151.1869  144.4619  160.9577 H   0  0  0  0  0  0  0  0  0  0  0  0
  151.3144  145.1962  158.4803 H   0  0  0  0  0  0  0  0  0  0  0  0
  152.5236  144.4316  157.4766 H   0  0  0  0  0  0  0  0  0  0  0  0
  150.3720  141.9891  158.9841 H   0  0  0  0  0  0  0  0  0  0  0  0
  149.3860  143.4266  159.1617 H   0  0  0  0  0  0  0  0  0  0  0  0
  148.0023  141.4933  158.4439 H   0  0  0  0  0  0  0  0  0  0  0  0
  147.9660  142.7821  157.2630 H   0  0  0  0  0  0  0  0  0  0  0  0
  149.6864  140.2636  157.1316 H   0  0  0  0  0  0  0  0  0  0  0  0
  147.0908  140.5116  156.3843 H   0  0  0  0  0  0  0  0  0  0  0  0
  146.0753  139.6120  154.9516 H   0  0  0  0  0  0  0  0  0  0  0  0
  147.3713  140.0076  151.3935 H   0  0  0  0  0  0  0  0  0  0  0  0
  144.5558  135.6141  151.7782 H   0  0  0  0  0  0  0  0  0  0  0  0
  145.9114  135.5172  150.6354 H   0  0  0  0  0  0  0  0  0  0  0  0
  144.4874  136.5079  150.2466 H   0  0  0  0  0  0  0  0  0  0  0  0
  145.4306  136.9637  153.7932 H   0  0  0  0  0  0  0  0  0  0  0  0
  150.4677  141.1242  154.9360 H   0  0  0  0  0  0  0  0  0  0  0  0
  149.4718  142.5484  155.1059 H   0  0  0  0  0  0  0  0  0  0  0  0
  151.7668  143.0855  155.6875 H   0  0  0  0  0  0  0  0  0  0  0  0
  151.8581  141.7932  156.8711 H   0  0  0  0  0  0  0  0  0  0  0  0
  150.0745  144.1111  156.9957 H   0  0  0  0  0  0  0  0  0  0  0  0
  1  2  2  0  0  0  0
  1 21  1  0  0  0  0
  1 22  1  0  0  0  0
  2  3  1  0  0  0  0
  2  4  1  0  0  0  0
  3 23  1  0  0  0  0
  3 24  1  0  0  0  0
  3 25  1  0  0  0  0
  4  5  1  0  0  0  0
  4 26  1  0  0  0  0
  4 27  1  0  0  0  0
  5 20  1  0  0  0  0
  5  6  1  0  0  0  0
  5 44  1  0  0  0  0
  6  7  1  0  0  0  0
  6 28  1  0  0  0  0
  6 29  1  0  0  0  0
  7  8  1  0  0  0  0
  7 30  1  0  0  0  0
  7 31  1  0  0  0  0
  8  9  1  0  0  0  0
  8 19  1  0  0  0  0
  8 32  1  0  0  0  0
  9 10  1  0  0  0  0
  9 33  1  0  0  0  0
 10 11  2  0  0  0  0
 10 12  1  0  0  0  0
 12 13  1  0  0  0  0
 12 34  1  0  0  0  0
 13 18  2  0  0  0  0
 13 14  1  0  0  0  0
 14 15  2  0  0  0  0
 14 35  1  0  0  0  0
 15 16  1  0  0  0  0
 16 17  1  0  0  0  0
 16 18  1  0  0  0  0
 17 36  1  0  0  0  0
 17 37  1  0  0  0  0
 17 38  1  0  0  0  0
 18 39  1  0  0  0  0
 19 20  1  0  0  0  0
 19 40  1  0  0  0  0
 19 41  1  0  0  0  0
 20 42  1  0  0  0  0
 20 43  1  0  0  0  0
M  CHG  1   5   1
M  END
> <s_m_source_file>
AV-unprocessed.smi

> <i_m_source_file_index>
760

> <i_lp_mmshare_version>
43012

> <i_f3d_flags>
0

> <s_epik_input>
W0NIMl09QyhbQ0gzXSlbQ0gyXU4xW0NIMl1bQ0gyXVtDSF0oW0NIMl1bQ0gyXTEpW05IXUMoPU8pW05IXWMyW2NIXW5uKFtDSDNdKVtjSF0y

> <s_epik_cmdline>
J2VwaWtfcHl0aG9uJywgJy1waCcsICc3LjAnLCAnLXRuJywgJzgnLCAnLW1hJywgJzIwMCcsICctbWV0YWxfYmluZGluZycsICctaW1hZScsICc8aW5maWxlLm1hZT4nLCAnLW9tYWUnLCAnPG91dGZpbGUubWFlPic=

> <r_lp_tautomer_probability>
1

> <r_epik_Ionization_Penalty>
0.0194996

> <r_epik_Ionization_Penalty_Charging>
0.0193505

> <r_epik_Ionization_Penalty_Neutral>
0.000149098

> <r_epik_State_Penalty>
0.0154499

> <r_epik_Charging_Adjusted_Penalty>
0.0348004

> <i_epik_Tot_Q>
1

> <i_epik_Tot_abs_Q>
1

> <r_epik_Metal_State_Penalty>
0.0154507

> <b_epik_Metal_Only>
0

> <s_lp_Force_Field>
OPLS_2005

> <r_lp_Energy>
20.4425

> <b_lp_Chiralities_Consistent>
1

> <s_lp_Variant>
AV-unprocessed.smi:760-1

> <Gold.Version>
5.8.1

> <Gold.Id.Protein>
6NUR|6NUR_protein|mol2

> <Gold.PLP.Fitness>
45.2676

> <Gold.PLP.PLP>
-35.4151

> <Gold.PLP.part.hbond>
-2.0000

> <Gold.PLP.part.metal>
0.0000

> <Gold.PLP.part.buried>
-2.1699

> <Gold.PLP.part.nonpolar>
-33.5392

> <Gold.PLP.part.repulsive>
2.0876

> <Gold.PLP.ligand.clash>
0.0000

> <Gold.PLP.ligand.torsion>
0.9960

> <Gold.PLP.Chemscore.Hbond>
2.9500

> <Gold.PLP.Chemscore.CHOScore>
0.9748

> <Gold.PLP.Chemscore.Metal>
0.0000

> <Gold.Chemscore.Hbonds>
donor molecule, donor type, donor heavy atom, donor atom, acceptor molecule, acceptor atom, score
      L1  H     5    44       P1  8028  2.00
      P1  H  7954  7966       L1    15  0.75
      L1  C    14    35       P1  7957  0.86

> <Gold.PLP.Chemscore.Internal.Correction>
0.0701

> <Gold.Rescore>
     Score         DG    S(hbond)    S(metal)    S(lipo)     H(rot)  DE(clash)    DE(int)     intcor
     13.18     -16.79       1.00        0.00      98.34       1.38       1.35       2.26       ----

> <Gold.Chemscore.Fitness>
13.1776

> <Gold.Chemscore.DG>
-16.7916

> <Gold.Chemscore.ZeroCoef>
-5.4800

> <Gold.Chemscore.Hbond>
0.9957

> <Gold.Chemscore.Metal>
0.0000

> <Gold.Chemscore.Lipo>
98.3439

> <Gold.Chemscore.Internal_Hbond>
0.0000

> <Gold.Chemscore.DEClash>
1.3512

> <Gold.Chemscore.DEInternal>
2.2628

> <Gold.Chemscore.Rot>
1.3752

> <Gold.Chemscore.Internal.Correction>
   9.000000E+99

> <Gold.Chemscore.Hbonds>
donor molecule, donor type, donor heavy atom, donor atom, acceptor molecule, acceptor atom, score
      L1  H     5    44       P1  8028  0.90
      P1  H  7954  7966       L1    15  0.14

> <Gold.Chemscore.Hbond.Weighted>
-3.3258

> <Gold.Chemscore.Metal.Weighted>
-0.0000

> <Gold.Chemscore.Lipo.Weighted>
-11.5062

> <Gold.Chemscore.Internal_Hbond.Weighted>
0.0000

> <Gold.Chemscore.DEClash.Weighted>
1.3512

> <Gold.Chemscore.DEInternal.Weighted>
2.2628

> <Gold.Chemscore.Rot.Weighted>
3.5204

> <Gold.Chemscore.Internal.Correction.Weighted>
   9.000000E+99

> <Gold.Protein.RotatedTorsions>
[ 6907 6896 6895 6894 ] final  160.44 input  -60.11 | X-H torsion
[ 7974 7965 7964 7962 ] final   86.06 input  175.53 | X-H torsion
[ 8008 7997 7996 7995 ] final -115.86 input   59.86 | X-H torsion
[ 10167 10162 10161 10158 ] final  -78.20 input  -65.29 | X-H torsion
[ 10718 10713 10712 10709 ] final  -99.14 input   66.30 | X-H torsion
[ 10763 10752 10751 10750 ] final  130.29 input  -60.55 | X-H torsion
[ 11005 11000 10999 10996 ] final -144.61 input  -57.11 | X-H torsion

> <Gold.Protein.ActiveResidues>
 VAL166  LYS551  ARG553  GLY616  TRP617  ASP618  TYR619  PRO620  LYS621  CYS622 
 ASP623  PHE694  ASN695  SER759  ASP760  ASP761  ALA762  ILE779  LEU786  VAL792 
 PHE793  MET794  SER795  GLU796  ALA797  LYS798  CYS799  TRP800  GLU811  SER814 

> <Gold.Protein.RotatedAtoms>
  151.9706  133.3724  159.4069 H   0  0  0  0  0  0  0  0  0  0  0  0  # atno 6907 bound_to 6896
  150.6949  134.4144  159.5185 H   0  0  0  0  0  0  0  0  0  0  0  0  # atno 6908 bound_to 6896
  152.1847  134.8724  160.0574 H   0  0  0  0  0  0  0  0  0  0  0  0  # atno 6909 bound_to 6896
  145.5772  139.2320  143.2373 H   0  0  0  0  0  0  0  0  0  0  0  0  # atno 7974 bound_to 7965
  155.0586  140.0393  157.2569 H   0  0  0  0  0  0  0  0  0  0  0  0  # atno 8008 bound_to 7997
  154.7078  140.2686  155.6634 H   0  0  0  0  0  0  0  0  0  0  0  0  # atno 8009 bound_to 7997
  156.2780  140.2728  156.1709 H   0  0  0  0  0  0  0  0  0  0  0  0  # atno 8010 bound_to 7997
  140.4703  143.2428  151.8215 H   0  0  0  0  0  0  0  0  0  0  0  0  # atno 10167 bound_to 10162
  156.0126  130.5269  150.6626 H   0  0  0  0  0  0  0  0  0  0  0  0  # atno 10718 bound_to 10713
  153.7557  135.3203  155.3328 H   0  0  0  0  0  0  0  0  0  0  0  0  # atno 10763 bound_to 10752
  154.8248  135.4578  154.0888 H   0  0  0  0  0  0  0  0  0  0  0  0  # atno 10764 bound_to 10752
  153.2103  135.6935  153.8204 H   0  0  0  0  0  0  0  0  0  0  0  0  # atno 10765 bound_to 10752
  140.8007  134.2861  157.4980 H   0  0  0  0  0  0  0  0  0  0  0  0  # atno 11005 bound_to 11000
  146.1742  140.6599  142.9219 LP  0  0  0  0  0  0  0  0  0  0  0  0  # atno 17320 bound_to 7965
  144.7410  140.4942  143.6869 LP  0  0  0  0  0  0  0  0  0  0  0  0  # atno 17321 bound_to 7965
  139.4817  144.4900  151.9197 LP  0  0  0  0  0  0  0  0  0  0  0  0  # atno 17342 bound_to 10162
  140.3985  144.2524  150.5894 LP  0  0  0  0  0  0  0  0  0  0  0  0  # atno 17343 bound_to 10162
  157.4365  131.0856  151.0986 LP  0  0  0  0  0  0  0  0  0  0  0  0  # atno 17370 bound_to 10713
  157.1543  130.6198  149.5591 LP  0  0  0  0  0  0  0  0  0  0  0  0  # atno 17371 bound_to 10713
  139.8722  134.9427  156.3834 LP  0  0  0  0  0  0  0  0  0  0  0  0  # atno 17394 bound_to 11000
  140.9298  133.7587  156.0010 LP  0  0  0  0  0  0  0  0  0  0  0  0  # atno 17395 bound_to 11000

$$$$
