AV-unprocessed.smi:1724|AV-procd|sdf|6950|dock1
  -GOLD-   22720 8163D 1   1.00000     0.00000
 Structure written by MMmdl.
 38 39  0  0  0  0  0  0  0  0  1 V2000
  149.5578  134.3023  155.9191 O   0  0  0  0  0  0  0  0  0  0  0  0
  149.3562  134.7602  154.7950 C   0  0  0  0  0  0  0  0  0  0  0  0
  149.8761  135.9209  154.3699 N   0  0  0  0  0  0  0  0  0  0  0  0
  150.7432  136.8013  155.1483 C   0  0  0  0  0  0  0  0  0  0  0  0
  150.6060  138.2791  154.7293 C   0  0  1  0  0  0  0  0  0  0  0  0
  149.1496  138.7809  154.7497 C   0  0  0  0  0  0  0  0  0  0  0  0
  149.0978  140.2760  154.4157 C   0  0  0  0  0  0  0  0  0  0  0  0
  150.0466  141.0641  155.3307 C   0  0  0  0  0  0  0  0  0  0  0  0
  151.3667  140.5458  155.2133 O   0  0  0  0  0  0  0  0  0  0  0  0
  151.4702  139.1875  155.6275 C   0  0  0  0  0  0  0  0  0  0  0  0
  148.6096  134.1922  153.8296 N   0  0  0  0  0  0  0  0  0  0  0  0
  147.8854  132.9868  153.8392 C   0  0  0  0  0  0  0  0  0  0  0  0
  148.4200  131.7471  153.6800 C   0  0  0  0  0  0  0  0  0  0  0  0
  147.6003  130.5455  153.7051 C   0  0  0  0  0  0  0  0  0  0  0  0
  148.1840  129.1542  153.5179 C   0  0  0  0  0  0  0  0  0  0  0  0
  147.7878  128.3525  154.5062 F   0  0  0  0  0  0  0  0  0  0  0  0
  147.7608  128.6283  152.3685 F   0  0  0  0  0  0  0  0  0  0  0  0
  149.5170  129.1747  153.5039 F   0  0  0  0  0  0  0  0  0  0  0  0
  146.2814  130.7214  153.9007 C   0  0  0  0  0  0  0  0  0  0  0  0
  145.7254  131.9904  154.0722 N   0  0  0  0  0  0  0  0  0  0  0  0
  146.4366  133.1397  154.0564 C   0  0  0  0  0  0  0  0  0  0  0  0
  145.8713  134.2209  154.2170 O   0  0  0  0  0  0  0  0  0  0  0  0
  144.7271  132.0388  154.2162 H   0  0  0  0  0  0  0  0  0  0  0  0
  149.6588  136.2187  153.4301 H   0  0  0  0  0  0  0  0  0  0  0  0
  150.5599  136.6914  156.2186 H   0  0  0  0  0  0  0  0  0  0  0  0
  151.7693  136.4708  154.9842 H   0  0  0  0  0  0  0  0  0  0  0  0
  150.9804  138.3744  153.7087 H   0  0  0  0  0  0  0  0  0  0  0  0
  148.5372  138.2283  154.0368 H   0  0  0  0  0  0  0  0  0  0  0  0
  148.7138  138.6109  155.7351 H   0  0  0  0  0  0  0  0  0  0  0  0
  149.3858  140.4293  153.3749 H   0  0  0  0  0  0  0  0  0  0  0  0
  148.0786  140.6497  154.5170 H   0  0  0  0  0  0  0  0  0  0  0  0
  150.0547  142.1165  155.0462 H   0  0  0  0  0  0  0  0  0  0  0  0
  149.7156  141.0169  156.3694 H   0  0  0  0  0  0  0  0  0  0  0  0
  151.1778  139.0947  156.6750 H   0  0  0  0  0  0  0  0  0  0  0  0
  152.5173  138.8906  155.5642 H   0  0  0  0  0  0  0  0  0  0  0  0
  148.5718  134.6887  152.9512 H   0  0  0  0  0  0  0  0  0  0  0  0
  149.4786  131.6127  153.5376 H   0  0  0  0  0  0  0  0  0  0  0  0
  145.5631  129.9159  153.9396 H   0  0  0  0  0  0  0  0  0  0  0  0
  1  2  2  0  0  0  0
  2  3  1  0  0  0  0
  2 11  1  0  0  0  0
  3  4  1  0  0  0  0
  3 24  1  0  0  0  0
  4  5  1  0  0  0  0
  4 25  1  0  0  0  0
  4 26  1  0  0  0  0
  5 10  1  0  0  0  0
  5  6  1  0  0  0  0
  5 27  1  0  0  0  0
  6  7  1  0  0  0  0
  6 28  1  0  0  0  0
  6 29  1  0  0  0  0
  7  8  1  0  0  0  0
  7 30  1  0  0  0  0
  7 31  1  0  0  0  0
  8  9  1  0  0  0  0
  8 32  1  0  0  0  0
  8 33  1  0  0  0  0
  9 10  1  0  0  0  0
 10 34  1  0  0  0  0
 10 35  1  0  0  0  0
 11 12  1  0  0  0  0
 11 36  1  0  0  0  0
 12 21  1  0  0  0  0
 12 13  2  0  0  0  0
 13 14  1  0  0  0  0
 13 37  1  0  0  0  0
 14 15  1  0  0  0  0
 14 19  2  0  0  0  0
 15 16  1  0  0  0  0
 15 17  1  0  0  0  0
 15 18  1  0  0  0  0
 19 20  1  0  0  0  0
 19 38  1  0  0  0  0
 20 23  1  0  0  0  0
 20 21  1  0  0  0  0
 21 22  2  0  0  0  0
M  END
> <s_m_source_file>
AV-unprocessed.smi

> <i_m_source_file_index>
1724

> <i_lp_mmshare_version>
43012

> <i_f3d_flags>
0

> <s_epik_input>
Tz1jMVtuSF1bY0hdYyhDKEYpKEYpRilbY0hdYzFbTkhdQyg9TylbTkhdW0NIMl1bQ0BASF0yW0NIMl1bQ0gyXVtDSDJdT1tDSDJdMg==

> <s_epik_cmdline>
J2VwaWtfcHl0aG9uJywgJy1waCcsICc3LjAnLCAnLXRuJywgJzgnLCAnLW1hJywgJzIwMCcsICctbWV0YWxfYmluZGluZycsICctaW1hZScsICc8aW5maWxlLm1hZT4nLCAnLW9tYWUnLCAnPG91dGZpbGUubWFlPic=

> <r_lp_tautomer_probability>
1

> <r_epik_Ionization_Penalty>
0.00384958

> <r_epik_Ionization_Penalty_Charging>
0.00382926

> <r_epik_Ionization_Penalty_Neutral>
2.03186e-05

> <r_epik_State_Penalty>
-0

> <r_epik_Charging_Adjusted_Penalty>
0.00382926

> <i_epik_Tot_Q>
0

> <i_epik_Tot_abs_Q>
0

> <r_epik_Metal_State_Penalty>
0.371494

> <b_epik_Metal_Only>
0

> <s_lp_Force_Field>
OPLS_2005

> <r_lp_Energy>
21.778

> <b_lp_Chiralities_Consistent>
1

> <s_lp_Variant>
AV-unprocessed.smi:1724-2

> <Gold.Version>
5.8.1

> <Gold.Id.Protein>
6NUR|6NUR_protein|mol2

> <Gold.PLP.Fitness>
42.7080

> <Gold.PLP.PLP>
-31.4248

> <Gold.PLP.part.hbond>
-4.3844

> <Gold.PLP.part.metal>
0.0000

> <Gold.PLP.part.buried>
-2.0918

> <Gold.PLP.part.nonpolar>
-25.4461

> <Gold.PLP.part.repulsive>
0.1923

> <Gold.PLP.ligand.clash>
0.0000

> <Gold.PLP.ligand.torsion>
1.1009

> <Gold.PLP.Chemscore.Hbond>
3.4714

> <Gold.PLP.Chemscore.CHOScore>
1.0000

> <Gold.PLP.Chemscore.Metal>
0.0000

> <Gold.Chemscore.Hbonds>
donor molecule, donor type, donor heavy atom, donor atom, acceptor molecule, acceptor atom, score
      L1  H     3    24       P1  7948  1.00
      L1  H    11    36       P1  7948  1.00
      L1  H    20    23       P1 10957  0.60
      P1  H  7989  7998       L1     9  0.84
      L1  C    19    38       P1 10956  1.00

> <Gold.PLP.Chemscore.Internal.Correction>
0.0709

> <Gold.Rescore>
     Score         DG    S(hbond)    S(metal)    S(lipo)     H(rot)  DE(clash)    DE(int)     intcor
     15.82     -17.00       2.54        0.00      55.23       1.33       0.13       1.04       ----

> <Gold.Chemscore.Fitness>
15.8202

> <Gold.Chemscore.DG>
-16.9963

> <Gold.Chemscore.ZeroCoef>
-5.4800

> <Gold.Chemscore.Hbond>
2.5362

> <Gold.Chemscore.Metal>
0.0000

> <Gold.Chemscore.Lipo>
55.2251

> <Gold.Chemscore.Internal_Hbond>
0.0000

> <Gold.Chemscore.DEClash>
0.1317

> <Gold.Chemscore.DEInternal>
1.0444

> <Gold.Chemscore.Rot>
1.3344

> <Gold.Chemscore.Internal.Correction>
   9.000000E+99

> <Gold.Chemscore.Hbonds>
donor molecule, donor type, donor heavy atom, donor atom, acceptor molecule, acceptor atom, score
      L1  H     3    24       P1  7948  0.30
      L1  H    11    36       P1  7948  0.29
      L1  H    20    23       P1 10957  0.09
      P1  H  7989  7998       L1     9  0.18

> <Gold.Chemscore.Hbond.Weighted>
-8.4709

> <Gold.Chemscore.Metal.Weighted>
-0.0000

> <Gold.Chemscore.Lipo.Weighted>
-6.4613

> <Gold.Chemscore.Internal_Hbond.Weighted>
0.0000

> <Gold.Chemscore.DEClash.Weighted>
0.1317

> <Gold.Chemscore.DEInternal.Weighted>
1.0444

> <Gold.Chemscore.Rot.Weighted>
3.4160

> <Gold.Chemscore.Internal.Correction.Weighted>
   9.000000E+99

> <Gold.Protein.RotatedTorsions>
[ 6907 6896 6895 6894 ] final  -91.15 input  -60.11 | X-H torsion
[ 7974 7965 7964 7962 ] final   12.20 input  175.53 | X-H torsion
[ 8008 7997 7996 7995 ] final  149.74 input   59.86 | X-H torsion
[ 10167 10162 10161 10158 ] final  167.87 input  -65.29 | X-H torsion
[ 10718 10713 10712 10709 ] final  -65.96 input   66.30 | X-H torsion
[ 10763 10752 10751 10750 ] final -173.16 input  -60.55 | X-H torsion
[ 11005 11000 10999 10996 ] final  -76.31 input  -57.11 | X-H torsion

> <Gold.Protein.ActiveResidues>
 VAL166  LYS551  ARG553  GLY616  TRP617  ASP618  TYR619  PRO620  LYS621  CYS622 
 ASP623  PHE694  ASN695  SER759  ASP760  ASP761  ALA762  ILE779  LEU786  VAL792 
 PHE793  MET794  SER795  GLU796  ALA797  LYS798  CYS799  TRP800  GLU811  SER814 

> <Gold.Protein.RotatedAtoms>
  150.6889  134.2321  159.4438 H   0  0  0  0  0  0  0  0  0  0  0  0  # atno 6907 bound_to 6896
  152.0271  134.9787  160.0581 H   0  0  0  0  0  0  0  0  0  0  0  0  # atno 6908 bound_to 6896
  152.1341  133.4390  159.4772 H   0  0  0  0  0  0  0  0  0  0  0  0  # atno 6909 bound_to 6896
  146.2356  139.9371  142.8488 H   0  0  0  0  0  0  0  0  0  0  0  0  # atno 7974 bound_to 7965
  156.2743  140.2093  156.5906 H   0  0  0  0  0  0  0  0  0  0  0  0  # atno 8008 bound_to 7997
  154.6986  140.0523  157.0458 H   0  0  0  0  0  0  0  0  0  0  0  0  # atno 8009 bound_to 7997
  155.0767  140.3182  155.4617 H   0  0  0  0  0  0  0  0  0  0  0  0  # atno 8010 bound_to 7997
  139.4955  144.3875  151.9553 H   0  0  0  0  0  0  0  0  0  0  0  0  # atno 10167 bound_to 10162
  156.0639  130.4255  150.1639 H   0  0  0  0  0  0  0  0  0  0  0  0  # atno 10718 bound_to 10713
  154.6110  135.2864  155.0432 H   0  0  0  0  0  0  0  0  0  0  0  0  # atno 10763 bound_to 10752
  154.1662  135.6480  153.5002 H   0  0  0  0  0  0  0  0  0  0  0  0  # atno 10764 bound_to 10752
  153.0195  135.5390  154.6864 H   0  0  0  0  0  0  0  0  0  0  0  0  # atno 10765 bound_to 10752
  141.1653  133.6979  156.7649 H   0  0  0  0  0  0  0  0  0  0  0  0  # atno 11005 bound_to 11000
  145.1988  140.9845  143.4168 LP  0  0  0  0  0  0  0  0  0  0  0  0  # atno 17320 bound_to 7965
  144.9792  139.3800  143.6270 LP  0  0  0  0  0  0  0  0  0  0  0  0  # atno 17321 bound_to 7965
  140.3313  144.3313  150.5987 LP  0  0  0  0  0  0  0  0  0  0  0  0  # atno 17342 bound_to 10162
  140.5643  143.2188  151.7711 LP  0  0  0  0  0  0  0  0  0  0  0  0  # atno 17343 bound_to 10162
  156.9703  130.9832  151.3460 LP  0  0  0  0  0  0  0  0  0  0  0  0  # atno 17370 bound_to 10713
  157.5668  130.8283  149.8338 LP  0  0  0  0  0  0  0  0  0  0  0  0  # atno 17371 bound_to 10713
  140.2506  134.8543  157.3664 LP  0  0  0  0  0  0  0  0  0  0  0  0  # atno 17394 bound_to 11000
  140.1706  134.4613  155.7834 LP  0  0  0  0  0  0  0  0  0  0  0  0  # atno 17395 bound_to 11000

$$$$
