AV-unprocessed.smi:946|AV-procd|sdf|4237|dock6
  -GOLD-   22720 2143D 1   1.00000     0.00000
 Structure written by MMmdl.
 42 43  0  0  0  0  0  0  0  0  1 V2000
  148.5807  138.8116  157.4544 C   0  0  0  0  0  0  0  0  0  0  0  0
  149.8423  138.0634  157.9103 C   0  0  1  0  0  0  0  0  0  0  0  0
  150.5973  138.9527  158.7297 O   0  0  0  0  0  0  0  0  0  0  0  0
  151.3564  139.9344  158.0326 C   0  0  0  0  0  0  0  0  0  0  0  0
  151.4667  141.1896  158.9075 C   0  0  1  0  0  0  0  0  0  0  0  0
  152.6754  141.1189  159.8614 C   0  0  0  0  0  0  0  0  0  0  0  0
  152.8143  142.4233  160.6545 C   0  0  0  0  0  0  0  0  0  0  0  0
  152.8485  143.6124  159.6890 C   0  0  0  0  0  0  0  0  0  0  0  0
  151.6443  143.5605  158.7357 C   0  0  0  0  0  0  0  0  0  0  0  0
  151.6272  142.3147  158.0455 O   0  0  0  0  0  0  0  0  0  0  0  0
  149.4884  136.7837  158.6856 C   0  0  0  0  0  0  0  0  0  0  0  0
  149.9221  135.6970  158.3014 O   0  0  0  0  0  0  0  0  0  0  0  0
  148.6901  136.9538  159.7564 N   0  0  0  0  0  0  0  0  0  0  0  0
  148.1903  135.9685  160.6478 C   0  0  0  0  0  0  0  0  0  0  0  0
  147.7352  136.4611  161.8906 C   0  0  0  0  0  0  0  0  0  0  0  0
  147.2188  135.5629  162.8435 C   0  0  0  0  0  0  0  0  0  0  0  0
  147.1706  134.1930  162.5301 C   0  0  0  0  0  0  0  0  0  0  0  0
  147.6460  133.7784  161.2677 C   0  0  0  0  0  0  0  0  0  0  0  0
  147.6332  132.3140  160.8515 C   0  0  0  0  0  0  0  0  0  0  0  0
  148.3993  131.6043  161.6802 F   0  0  0  0  0  0  0  0  0  0  0  0
  146.4011  131.8047  160.8775 F   0  0  0  0  0  0  0  0  0  0  0  0
  148.1128  132.1939  159.6134 F   0  0  0  0  0  0  0  0  0  0  0  0
  148.1404  134.6457  160.3554 N   0  0  0  0  0  0  0  0  0  0  0  0
  147.9471  138.1778  156.8328 H   0  0  0  0  0  0  0  0  0  0  0  0
  148.8456  139.6899  156.8652 H   0  0  0  0  0  0  0  0  0  0  0  0
  147.9858  139.1530  158.3025 H   0  0  0  0  0  0  0  0  0  0  0  0
  150.4257  137.8089  157.0232 H   0  0  0  0  0  0  0  0  0  0  0  0
  152.3552  139.5490  157.8243 H   0  0  0  0  0  0  0  0  0  0  0  0
  150.8932  140.1799  157.0756 H   0  0  0  0  0  0  0  0  0  0  0  0
  150.5507  141.2983  159.4911 H   0  0  0  0  0  0  0  0  0  0  0  0
  152.5690  140.2774  160.5467 H   0  0  0  0  0  0  0  0  0  0  0  0
  153.5868  140.9424  159.2885 H   0  0  0  0  0  0  0  0  0  0  0  0
  151.9717  142.5287  161.3387 H   0  0  0  0  0  0  0  0  0  0  0  0
  153.7166  142.4036  161.2663 H   0  0  0  0  0  0  0  0  0  0  0  0
  152.8520  144.5504  160.2448 H   0  0  0  0  0  0  0  0  0  0  0  0
  153.7719  143.5879  159.1089 H   0  0  0  0  0  0  0  0  0  0  0  0
  150.7088  143.7012  159.2794 H   0  0  0  0  0  0  0  0  0  0  0  0
  151.7111  144.3663  158.0046 H   0  0  0  0  0  0  0  0  0  0  0  0
  148.4053  137.9021  159.9527 H   0  0  0  0  0  0  0  0  0  0  0  0
  147.7794  137.5167  162.1164 H   0  0  0  0  0  0  0  0  0  0  0  0
  146.8657  135.9197  163.7996 H   0  0  0  0  0  0  0  0  0  0  0  0
  146.7783  133.4861  163.2459 H   0  0  0  0  0  0  0  0  0  0  0  0
  1  2  1  0  0  0  0
  1 24  1  0  0  0  0
  1 25  1  0  0  0  0
  1 26  1  0  0  0  0
  2  3  1  0  0  0  0
  2 11  1  0  0  0  0
  2 27  1  0  0  0  0
  3  4  1  0  0  0  0
  4  5  1  0  0  0  0
  4 28  1  0  0  0  0
  4 29  1  0  0  0  0
  5 10  1  0  0  0  0
  5  6  1  0  0  0  0
  5 30  1  0  0  0  0
  6  7  1  0  0  0  0
  6 31  1  0  0  0  0
  6 32  1  0  0  0  0
  7  8  1  0  0  0  0
  7 33  1  0  0  0  0
  7 34  1  0  0  0  0
  8  9  1  0  0  0  0
  8 35  1  0  0  0  0
  8 36  1  0  0  0  0
  9 10  1  0  0  0  0
  9 37  1  0  0  0  0
  9 38  1  0  0  0  0
 11 12  2  0  0  0  0
 11 13  1  0  0  0  0
 13 14  1  0  0  0  0
 13 39  1  0  0  0  0
 14 23  1  0  0  0  0
 14 15  2  0  0  0  0
 15 16  1  0  0  0  0
 15 40  1  0  0  0  0
 16 17  2  0  0  0  0
 16 41  1  0  0  0  0
 17 18  1  0  0  0  0
 17 42  1  0  0  0  0
 18 19  1  0  0  0  0
 18 23  2  0  0  0  0
 19 20  1  0  0  0  0
 19 21  1  0  0  0  0
 19 22  1  0  0  0  0
M  END
> <s_m_source_file>
AV-unprocessed.smi

> <i_m_source_file_index>
946

> <i_lp_mmshare_version>
43012

> <i_f3d_flags>
0

> <s_epik_input>
TzFbQ0gyXVtDSDJdW0NIMl1bQ0gyXVtDQEhdMVtDSDJdT1tDQEBIXShbQ0gzXSlDKD1PKVtOSF1jMltjSF1bY0hdW2NIXWMobjIpQyhGKShGKUY=

> <s_epik_cmdline>
J2VwaWtfcHl0aG9uJywgJy1waCcsICc3LjAnLCAnLXRuJywgJzgnLCAnLW1hJywgJzIwMCcsICctbWV0YWxfYmluZGluZycsICctaW1hZScsICc8aW5maWxlLm1hZT4nLCAnLW9tYWUnLCAnPG91dGZpbGUubWFlPic=

> <r_lp_tautomer_probability>
1

> <r_epik_Ionization_Penalty>
1.32683e-06

> <r_epik_Ionization_Penalty_Charging>
0

> <r_epik_Ionization_Penalty_Neutral>
1.32683e-06

> <r_epik_State_Penalty>
-0

> <r_epik_Charging_Adjusted_Penalty>
0

> <i_epik_Tot_Q>
0

> <i_epik_Tot_abs_Q>
0

> <r_epik_Metal_State_Penalty>
-0

> <b_epik_Metal_Only>
0

> <s_lp_Force_Field>
OPLS_2005

> <r_lp_Energy>
14.7702

> <b_lp_Chiralities_Consistent>
1

> <s_lp_Variant>
AV-unprocessed.smi:946-4

> <Gold.Version>
5.8.1

> <Gold.Id.Protein>
6NUR|6NUR_protein|mol2

> <Gold.PLP.Fitness>
46.5297

> <Gold.PLP.PLP>
-45.1011

> <Gold.PLP.part.hbond>
-1.0000

> <Gold.PLP.part.metal>
0.0000

> <Gold.PLP.part.buried>
-5.1212

> <Gold.PLP.part.nonpolar>
-39.1967

> <Gold.PLP.part.repulsive>
0.2544

> <Gold.PLP.ligand.clash>
0.0000

> <Gold.PLP.ligand.torsion>
0.8035

> <Gold.PLP.Chemscore.Hbond>
1.0000

> <Gold.PLP.Chemscore.CHOScore>
0.0000

> <Gold.PLP.Chemscore.Metal>
0.0000

> <Gold.Chemscore.Hbonds>
donor molecule, donor type, donor heavy atom, donor atom, acceptor molecule, acceptor atom, score
      P1  H  6896  6909       L1    12  1.00

> <Gold.PLP.Chemscore.Internal.Correction>
0.0356

> <Gold.Rescore>
     Score         DG    S(hbond)    S(metal)    S(lipo)     H(rot)  DE(clash)    DE(int)     intcor
     13.97     -15.99       0.96        0.00     100.68       1.76       0.05       1.97       ----

> <Gold.Chemscore.Fitness>
13.9732

> <Gold.Chemscore.DG>
-15.9872

> <Gold.Chemscore.ZeroCoef>
-5.4800

> <Gold.Chemscore.Hbond>
0.9649

> <Gold.Chemscore.Metal>
0.0000

> <Gold.Chemscore.Lipo>
100.6763

> <Gold.Chemscore.Internal_Hbond>
0.0000

> <Gold.Chemscore.DEClash>
0.0476

> <Gold.Chemscore.DEInternal>
1.9664

> <Gold.Chemscore.Rot>
1.7557

> <Gold.Chemscore.Internal.Correction>
   9.000000E+99

> <Gold.Chemscore.Hbonds>
donor molecule, donor type, donor heavy atom, donor atom, acceptor molecule, acceptor atom, score
      P1  H  6896  6909       L1    12  0.90

> <Gold.Chemscore.Hbond.Weighted>
-3.2227

> <Gold.Chemscore.Metal.Weighted>
-0.0000

> <Gold.Chemscore.Lipo.Weighted>
-11.7791

> <Gold.Chemscore.Internal_Hbond.Weighted>
0.0000

> <Gold.Chemscore.DEClash.Weighted>
0.0476

> <Gold.Chemscore.DEInternal.Weighted>
1.9664

> <Gold.Chemscore.Rot.Weighted>
4.4946

> <Gold.Chemscore.Internal.Correction.Weighted>
   9.000000E+99

> <Gold.Protein.RotatedTorsions>
[ 6907 6896 6895 6894 ] final   49.67 input  -60.11 | X-H torsion
[ 7974 7965 7964 7962 ] final  163.12 input  175.53 | X-H torsion
[ 8008 7997 7996 7995 ] final   70.40 input   59.86 | X-H torsion
[ 10167 10162 10161 10158 ] final  -44.14 input  -65.29 | X-H torsion
[ 10718 10713 10712 10709 ] final   76.95 input   66.30 | X-H torsion
[ 10763 10752 10751 10750 ] final -145.41 input  -60.55 | X-H torsion
[ 11005 11000 10999 10996 ] final  -96.14 input  -57.11 | X-H torsion

> <Gold.Protein.ActiveResidues>
 VAL166  LYS551  ARG553  GLY616  TRP617  ASP618  TYR619  PRO620  LYS621  CYS622 
 ASP623  PHE694  ASN695  SER759  ASP760  ASP761  ALA762  ILE779  LEU786  VAL792 
 PHE793  MET794  SER795  GLU796  ALA797  LYS798  CYS799  TRP800  GLU811  SER814 

> <Gold.Protein.RotatedAtoms>
  152.2933  134.7696  160.0373 H   0  0  0  0  0  0  0  0  0  0  0  0  # atno 6907 bound_to 6896
  151.8234  133.3393  159.3599 H   0  0  0  0  0  0  0  0  0  0  0  0  # atno 6908 bound_to 6896
  150.7240  134.5481  159.5825 H   0  0  0  0  0  0  0  0  0  0  0  0  # atno 6909 bound_to 6896
  144.7604  139.8137  143.6334 H   0  0  0  0  0  0  0  0  0  0  0  0  # atno 7974 bound_to 7965
  155.7383  140.3491  155.5092 H   0  0  0  0  0  0  0  0  0  0  0  0  # atno 8008 bound_to 7997
  155.9118  140.1052  157.1295 H   0  0  0  0  0  0  0  0  0  0  0  0  # atno 8009 bound_to 7997
  154.4057  140.1266  156.4554 H   0  0  0  0  0  0  0  0  0  0  0  0  # atno 8010 bound_to 7997
  140.6908  143.2945  151.3453 H   0  0  0  0  0  0  0  0  0  0  0  0  # atno 10167 bound_to 10162
  157.6693  130.9799  150.1571 H   0  0  0  0  0  0  0  0  0  0  0  0  # atno 10718 bound_to 10713
  154.8384  135.3414  154.6500 H   0  0  0  0  0  0  0  0  0  0  0  0  # atno 10763 bound_to 10752
  153.7113  135.6964  153.5041 H   0  0  0  0  0  0  0  0  0  0  0  0  # atno 10764 bound_to 10752
  153.2449  135.4372  155.0691 H   0  0  0  0  0  0  0  0  0  0  0  0  # atno 10765 bound_to 10752
  141.1420  133.8076  157.0531 H   0  0  0  0  0  0  0  0  0  0  0  0  # atno 11005 bound_to 11000
  146.1661  139.4794  142.9957 LP  0  0  0  0  0  0  0  0  0  0  0  0  # atno 17320 bound_to 7965
  145.6637  141.0234  143.1695 LP  0  0  0  0  0  0  0  0  0  0  0  0  # atno 17321 bound_to 7965
  139.6309  144.0723  152.2475 LP  0  0  0  0  0  0  0  0  0  0  0  0  # atno 17342 bound_to 10162
  140.0198  144.6162  150.7576 LP  0  0  0  0  0  0  0  0  0  0  0  0  # atno 17343 bound_to 10162
  156.2356  130.3686  149.8395 LP  0  0  0  0  0  0  0  0  0  0  0  0  # atno 17370 bound_to 10713
  156.6209  130.8626  151.3475 LP  0  0  0  0  0  0  0  0  0  0  0  0  # atno 17371 bound_to 10713
  140.0619  134.9750  157.1320 LP  0  0  0  0  0  0  0  0  0  0  0  0  # atno 17394 bound_to 11000
  140.3836  134.2261  155.7169 LP  0  0  0  0  0  0  0  0  0  0  0  0  # atno 17395 bound_to 11000

$$$$
