AV-unprocessed.smi:193|AV-procd|sdf|1498|dock2
  -GOLD-   2262019323D 1   1.00000     0.00000
 Structure written by MMmdl.
 62 66  0  0  0  0  0  0  0  0  2 V2000
  144.5921  136.0881  155.2926 C   0  0  0  0  0  0  0  0  0  0  0  0
  145.3892  136.6979  154.1288 C   0  0  2  0  0  0  0  0  0  0  0  0
  145.8086  138.1357  154.5019 C   0  0  0  0  0  0  0  0  0  0  0  0
  146.7762  138.7282  153.5840 N   0  0  0  0  0  0  0  0  0  0  0  0
  147.2878  139.8807  154.0657 C   0  0  0  0  0  0  0  0  0  0  0  0
  146.5415  141.0028  153.9219 N   0  0  0  0  0  0  0  0  0  0  0  0
  147.0029  142.1719  154.3777 C   0  0  0  0  0  0  0  0  0  0  0  0
  148.1607  142.4319  154.9897 N   0  0  0  0  0  0  0  0  0  0  0  0
  148.9149  141.3037  155.1277 C   0  0  0  0  0  0  0  0  0  0  0  0
  148.5575  139.9955  154.6973 C   0  0  0  0  0  0  0  0  0  0  0  0
  149.5751  139.0994  155.0008 N   0  0  0  0  0  0  0  0  0  0  0  0
  150.4834  139.8372  155.5800 C   0  0  0  0  0  0  0  0  0  0  0  0
  150.1669  141.1718  155.7019 N   0  0  0  0  0  0  0  0  0  0  0  0
  150.9902  142.2127  156.2990 C   0  0  0  0  0  0  0  0  0  0  0  0
  151.3533  141.9536  157.7820 C   0  0  0  0  0  0  0  0  0  0  0  0
  150.1440  141.7333  158.4881 O   0  0  0  0  0  0  0  0  0  0  0  0
  152.2273  140.6898  157.9092 C   0  0  0  0  0  0  0  0  0  0  0  0
  152.7516  140.4879  159.3422 C   0  0  0  0  0  0  0  0  0  0  0  0
  153.4526  141.6483  159.7727 O   0  0  0  0  0  0  0  0  0  0  0  0
  152.6224  142.8017  159.8339 C   0  0  0  0  0  0  0  0  0  0  0  0
  152.0888  143.1459  158.4320 C   0  0  0  0  0  0  0  0  0  0  0  0
  146.4583  138.7750  152.1601 C   0  0  0  0  0  0  0  0  0  0  0  0
  146.5769  137.3842  151.5192 C   0  0  0  0  0  0  0  0  0  0  0  0
  145.3284  136.5803  151.5726 N   0  3  1  0  0  0  0  0  0  0  0  0
  145.5691  135.1766  151.1659 C   0  0  2  0  0  0  0  0  0  0  0  0
  144.6927  134.7153  150.0242 C   0  0  0  0  0  0  0  0  0  0  0  0
  144.4023  134.2517  151.4354 C   0  0  1  0  0  0  0  0  0  0  0  0
  144.6348  132.8085  151.8253 C   0  0  0  0  0  0  0  0  0  0  0  0
  144.5427  136.6702  152.8341 C   0  0  0  0  0  0  0  0  0  0  0  0
  143.6758  136.6480  155.4832 H   0  0  0  0  0  0  0  0  0  0  0  0
  145.1774  136.0854  156.2127 H   0  0  0  0  0  0  0  0  0  0  0  0
  144.3141  135.0548  155.0825 H   0  0  0  0  0  0  0  0  0  0  0  0
  146.2789  136.0792  154.0040 H   0  0  0  0  0  0  0  0  0  0  0  0
  144.9288  138.7782  154.5649 H   0  0  0  0  0  0  0  0  0  0  0  0
  146.2514  138.1254  155.4997 H   0  0  0  0  0  0  0  0  0  0  0  0
  146.3513  143.0208  154.2309 H   0  0  0  0  0  0  0  0  0  0  0  0
  151.4153  139.4260  155.9403 H   0  0  0  0  0  0  0  0  0  0  0  0
  151.8945  142.3192  155.6983 H   0  0  0  0  0  0  0  0  0  0  0  0
  150.4549  143.1588  156.2075 H   0  0  0  0  0  0  0  0  0  0  0  0
  150.1029  142.3426  159.2094 H   0  0  0  0  0  0  0  0  0  0  0  0
  151.6749  139.8069  157.5848 H   0  0  0  0  0  0  0  0  0  0  0  0
  153.0842  140.7752  157.2394 H   0  0  0  0  0  0  0  0  0  0  0  0
  151.9372  140.2631  160.0326 H   0  0  0  0  0  0  0  0  0  0  0  0
  153.4329  139.6375  159.3723 H   0  0  0  0  0  0  0  0  0  0  0  0
  151.8041  142.6377  160.5367 H   0  0  0  0  0  0  0  0  0  0  0  0
  153.2083  143.6344  160.2233 H   0  0  0  0  0  0  0  0  0  0  0  0
  152.9313  143.4339  157.8019 H   0  0  0  0  0  0  0  0  0  0  0  0
  151.4392  144.0201  158.4924 H   0  0  0  0  0  0  0  0  0  0  0  0
  145.4716  139.2081  151.9909 H   0  0  0  0  0  0  0  0  0  0  0  0
  147.1729  139.4373  151.6679 H   0  0  0  0  0  0  0  0  0  0  0  0
  146.8320  137.5072  150.4663 H   0  0  0  0  0  0  0  0  0  0  0  0
  147.4082  136.8353  151.9655 H   0  0  0  0  0  0  0  0  0  0  0  0
  146.5939  134.8188  151.2518 H   0  0  0  0  0  0  0  0  0  0  0  0
  143.9991  135.4274  149.5810 H   0  0  0  0  0  0  0  0  0  0  0  0
  145.1152  133.9896  149.3320 H   0  0  0  0  0  0  0  0  0  0  0  0
  143.5269  134.6930  151.9090 H   0  0  0  0  0  0  0  0  0  0  0  0
  145.5225  132.4114  151.3317 H   0  0  0  0  0  0  0  0  0  0  0  0
  143.7765  132.2006  151.5383 H   0  0  0  0  0  0  0  0  0  0  0  0
  144.7722  132.7299  152.9037 H   0  0  0  0  0  0  0  0  0  0  0  0
  143.8410  135.8351  152.8587 H   0  0  0  0  0  0  0  0  0  0  0  0
  143.9134  137.5596  152.7883 H   0  0  0  0  0  0  0  0  0  0  0  0
  144.7219  136.9655  150.8629 H   0  0  0  0  0  0  0  0  0  0  0  0
  1  2  1  0  0  0  0
  1 30  1  0  0  0  0
  1 31  1  0  0  0  0
  1 32  1  0  0  0  0
  2 29  1  0  0  0  0
  2  3  1  0  0  0  0
  2 33  1  0  0  0  0
  3  4  1  0  0  0  0
  3 34  1  0  0  0  0
  3 35  1  0  0  0  0
  4  5  1  0  0  0  0
  4 22  1  0  0  0  0
  5 10  1  0  0  0  0
  5  6  2  0  0  0  0
  6  7  1  0  0  0  0
  7  8  2  0  0  0  0
  7 36  1  0  0  0  0
  8  9  1  0  0  0  0
  9 13  1  0  0  0  0
  9 10  2  0  0  0  0
 10 11  1  0  0  0  0
 11 12  2  0  0  0  0
 12 13  1  0  0  0  0
 12 37  1  0  0  0  0
 13 14  1  0  0  0  0
 14 15  1  0  0  0  0
 14 38  1  0  0  0  0
 14 39  1  0  0  0  0
 15 21  1  0  0  0  0
 15 16  1  0  0  0  0
 15 17  1  0  0  0  0
 16 40  1  0  0  0  0
 17 18  1  0  0  0  0
 17 41  1  0  0  0  0
 17 42  1  0  0  0  0
 18 19  1  0  0  0  0
 18 43  1  0  0  0  0
 18 44  1  0  0  0  0
 19 20  1  0  0  0  0
 20 21  1  0  0  0  0
 20 45  1  0  0  0  0
 20 46  1  0  0  0  0
 21 47  1  0  0  0  0
 21 48  1  0  0  0  0
 22 23  1  0  0  0  0
 22 49  1  0  0  0  0
 22 50  1  0  0  0  0
 23 24  1  0  0  0  0
 23 51  1  0  0  0  0
 23 52  1  0  0  0  0
 24 25  1  0  0  0  0
 24 29  1  0  0  0  0
 24 62  1  0  0  0  0
 25 27  1  0  0  0  0
 25 26  1  0  0  0  0
 25 53  1  0  0  0  0
 26 27  1  0  0  0  0
 26 54  1  0  0  0  0
 26 55  1  0  0  0  0
 27 28  1  0  0  0  0
 27 56  1  0  0  0  0
 28 57  1  0  0  0  0
 28 58  1  0  0  0  0
 28 59  1  0  0  0  0
 29 60  1  0  0  0  0
 29 61  1  0  0  0  0
M  CHG  1  24   1
M  END
> <s_m_source_file>
AV-unprocessed.smi

> <i_m_source_file_index>
193

> <i_lp_mmshare_version>
43012

> <i_f3d_flags>
0

> <s_epik_input>
W0NIM11bQ0BASF0xW0NIMl1bQ0BIXTFOKFtDSDJdMilbQ0gyXVtDSDJdTihbQ0gyXVtDQEhdMltDSDNdKWMobltjSF1uMyljKGMzNCluW2NIXW40W0NIMl1DNShbT0hdKVtDSDJdW0NIMl1PW0NIMl1bQ0gyXTU=

> <s_epik_cmdline>
J2VwaWtfcHl0aG9uJywgJy1waCcsICc3LjAnLCAnLXRuJywgJzgnLCAnLW1hJywgJzIwMCcsICctbWV0YWxfYmluZGluZycsICctaW1hZScsICc8aW5maWxlLm1hZT4nLCAnLW9tYWUnLCAnPG91dGZpbGUubWFlPic=

> <r_lp_tautomer_probability>
1

> <r_epik_Ionization_Penalty>
0.0540825

> <r_epik_Ionization_Penalty_Charging>
0.0538476

> <r_epik_Ionization_Penalty_Neutral>
0.000234891

> <r_epik_State_Penalty>
0.0200719

> <r_epik_Charging_Adjusted_Penalty>
0.0739194

> <i_epik_Tot_Q>
1

> <i_epik_Tot_abs_Q>
1

> <r_epik_Metal_State_Penalty>
0.0199414

> <b_epik_Metal_Only>
0

> <s_lp_Force_Field>
OPLS_2005

> <r_lp_Energy>
56.0511

> <b_lp_Chiralities_Consistent>
1

> <s_lp_Variant>
AV-unprocessed.smi:193-3

> <Gold.Version>
5.8.1

> <Gold.Id.Protein>
6NUR|6NUR_protein|mol2

> <Gold.PLP.Fitness>
45.0277

> <Gold.PLP.PLP>
-42.7123

> <Gold.PLP.part.hbond>
-1.1272

> <Gold.PLP.part.metal>
0.0000

> <Gold.PLP.part.buried>
-3.2192

> <Gold.PLP.part.nonpolar>
-43.8171

> <Gold.PLP.part.repulsive>
4.7874

> <Gold.PLP.ligand.clash>
0.0000

> <Gold.PLP.ligand.torsion>
1.1396

> <Gold.PLP.Chemscore.Hbond>
1.0000

> <Gold.PLP.Chemscore.CHOScore>
0.0000

> <Gold.PLP.Chemscore.Metal>
0.0000

> <Gold.Chemscore.Hbonds>
donor molecule, donor type, donor heavy atom, donor atom, acceptor molecule, acceptor atom, score
      L1  H    24    62       P1 10171  0.81

> <Gold.PLP.Chemscore.Internal.Correction>
1.5947

> <Gold.Rescore>
     Score         DG    S(hbond)    S(metal)    S(lipo)     H(rot)  DE(clash)    DE(int)     intcor
     10.89     -15.70       0.96        0.00     108.07       2.20       3.24       1.58       ----

> <Gold.Chemscore.Fitness>
10.8892

> <Gold.Chemscore.DG>
-15.7012

> <Gold.Chemscore.ZeroCoef>
-5.4800

> <Gold.Chemscore.Hbond>
0.9621

> <Gold.Chemscore.Metal>
0.0000

> <Gold.Chemscore.Lipo>
108.0726

> <Gold.Chemscore.Internal_Hbond>
0.0000

> <Gold.Chemscore.DEClash>
3.2360

> <Gold.Chemscore.DEInternal>
1.5759

> <Gold.Chemscore.Rot>
2.2018

> <Gold.Chemscore.Internal.Correction>
   9.000000E+99

> <Gold.Chemscore.Hbonds>
donor molecule, donor type, donor heavy atom, donor atom, acceptor molecule, acceptor atom, score
      L1  H    24    62       P1 10171  0.76

> <Gold.Chemscore.Hbond.Weighted>
-3.2133

> <Gold.Chemscore.Metal.Weighted>
-0.0000

> <Gold.Chemscore.Lipo.Weighted>
-12.6445

> <Gold.Chemscore.Internal_Hbond.Weighted>
0.0000

> <Gold.Chemscore.DEClash.Weighted>
3.2360

> <Gold.Chemscore.DEInternal.Weighted>
1.5759

> <Gold.Chemscore.Rot.Weighted>
5.6366

> <Gold.Chemscore.Internal.Correction.Weighted>
   9.000000E+99

> <Gold.Protein.RotatedTorsions>
[ 6907 6896 6895 6894 ] final   -3.39 input  -60.11 | X-H torsion
[ 7974 7965 7964 7962 ] final   96.43 input  175.53 | X-H torsion
[ 8008 7997 7996 7995 ] final   31.74 input   59.86 | X-H torsion
[ 10167 10162 10161 10158 ] final  172.85 input  -65.29 | X-H torsion
[ 10718 10713 10712 10709 ] final -107.34 input   66.30 | X-H torsion
[ 10763 10752 10751 10750 ] final  -26.29 input  -60.55 | X-H torsion
[ 11005 11000 10999 10996 ] final   74.58 input  -57.11 | X-H torsion

> <Gold.Protein.ActiveResidues>
 VAL166  LYS551  ARG553  GLY616  TRP617  ASP618  TYR619  PRO620  LYS621  CYS622 
 ASP623  PHE694  ASN695  SER759  ASP760  ASP761  ALA762  ILE779  LEU786  VAL792 
 PHE793  MET794  SER795  GLU796  ALA797  LYS798  CYS799  TRP800  GLU811  SER814 

> <Gold.Protein.RotatedAtoms>
  151.5146  135.1066  159.9862 H   0  0  0  0  0  0  0  0  0  0  0  0  # atno 6907 bound_to 6896
  152.4647  133.7893  159.6904 H   0  0  0  0  0  0  0  0  0  0  0  0  # atno 6908 bound_to 6896
  150.8625  133.7559  159.3013 H   0  0  0  0  0  0  0  0  0  0  0  0  # atno 6909 bound_to 6896
  145.4390  139.2303  143.3102 H   0  0  0  0  0  0  0  0  0  0  0  0  # atno 7974 bound_to 7965
  155.1113  140.3239  155.4521 H   0  0  0  0  0  0  0  0  0  0  0  0  # atno 8008 bound_to 7997
  156.2689  140.2043  156.6185 H   0  0  0  0  0  0  0  0  0  0  0  0  # atno 8009 bound_to 7997
  154.6754  140.0532  157.0196 H   0  0  0  0  0  0  0  0  0  0  0  0  # atno 8010 bound_to 7997
  139.5089  144.3327  152.0096 H   0  0  0  0  0  0  0  0  0  0  0  0  # atno 10167 bound_to 10162
  156.0432  130.5658  150.7808 H   0  0  0  0  0  0  0  0  0  0  0  0  # atno 10718 bound_to 10713
  153.7135  135.6949  153.5031 H   0  0  0  0  0  0  0  0  0  0  0  0  # atno 10763 bound_to 10752
  153.2255  135.4355  155.0536 H   0  0  0  0  0  0  0  0  0  0  0  0  # atno 10764 bound_to 10752
  154.8307  135.3471  154.6671 H   0  0  0  0  0  0  0  0  0  0  0  0  # atno 10765 bound_to 10752
  139.9384  134.7445  156.1166 H   0  0  0  0  0  0  0  0  0  0  0  0  # atno 11005 bound_to 11000
  146.2567  140.5136  142.8871 LP  0  0  0  0  0  0  0  0  0  0  0  0  # atno 17320 bound_to 7965
  144.8134  140.6425  143.6400 LP  0  0  0  0  0  0  0  0  0  0  0  0  # atno 17321 bound_to 7965
  140.2766  144.3906  150.6133 LP  0  0  0  0  0  0  0  0  0  0  0  0  # atno 17342 bound_to 10162
  140.6049  143.2167  151.7000 LP  0  0  0  0  0  0  0  0  0  0  0  0  # atno 17343 bound_to 10162
  157.5276  131.0935  150.9997 LP  0  0  0  0  0  0  0  0  0  0  0  0  # atno 17370 bound_to 10713
  157.0312  130.5712  149.5343 LP  0  0  0  0  0  0  0  0  0  0  0  0  # atno 17371 bound_to 10713
  141.1008  133.6678  156.2750 LP  0  0  0  0  0  0  0  0  0  0  0  0  # atno 17394 bound_to 11000
  140.6015  134.5549  157.5518 LP  0  0  0  0  0  0  0  0  0  0  0  0  # atno 17395 bound_to 11000

$$$$
