AV-unprocessed.smi:1641|AV-procd|sdf|6557|dock9
  -GOLD-   22720 7243D 1   1.00000     0.00000
 Structure written by MMmdl.
 41 42  0  0  0  0  0  0  0  0  1 V2000
  153.6700  141.6138  160.7850 C   0  0  0  0  0  0  0  0  0  0  0  0
  152.7951  142.1989  159.7298 C   0  0  0  0  0  0  0  0  0  0  0  0
  152.7676  143.5092  159.4576 N   0  0  0  0  0  0  0  0  0  0  0  0
  151.8774  143.8158  158.4380 N   0  0  0  0  0  0  0  0  0  0  0  0
  151.2579  142.7235  157.9698 C   0  0  0  0  0  0  0  0  0  0  0  0
  150.2959  142.7479  156.9259 N   0  0  0  0  0  0  0  0  0  0  0  0
  149.9686  141.7617  156.0728 C   0  0  0  0  0  0  0  0  0  0  0  0
  150.4458  140.6268  156.0831 O   0  0  0  0  0  0  0  0  0  0  0  0
  149.0440  142.1703  155.1913 N   0  0  0  0  0  0  0  0  0  0  0  0
  148.5118  141.3682  154.0934 C   0  0  0  0  0  0  0  0  0  0  0  0
  147.1205  140.7992  154.4335 C   0  0  0  0  0  0  0  0  0  0  0  0
  146.0730  141.7936  154.6658 N   0  0  0  0  0  0  0  0  0  0  0  0
  146.1262  142.3664  156.0089 C   0  0  0  0  0  0  0  0  0  0  0  0
  145.0184  143.4113  156.2484 C   0  0  2  0  0  0  0  0  0  0  0  0
  143.6211  142.7884  156.4147 C   0  0  0  0  0  0  0  0  0  0  0  0
  145.0409  144.3995  155.2165 O   0  0  0  0  0  0  0  0  0  0  0  0
  144.9993  143.8893  153.8849 C   0  0  1  0  0  0  0  0  0  0  0  0
  145.1098  145.0719  152.9168 C   0  0  0  0  0  0  0  0  0  0  0  0
  146.1387  142.8724  153.6898 C   0  0  0  0  0  0  0  0  0  0  0  0
  151.7121  141.2183  158.7497 S   0  0  0  0  0  0  0  0  0  0  0  0
  154.5733  142.2123  160.9061 H   0  0  0  0  0  0  0  0  0  0  0  0
  153.9595  140.5985  160.5135 H   0  0  0  0  0  0  0  0  0  0  0  0
  153.1374  141.5848  161.7356 H   0  0  0  0  0  0  0  0  0  0  0  0
  149.8090  143.6237  156.8063 H   0  0  0  0  0  0  0  0  0  0  0  0
  148.7056  143.1185  155.2635 H   0  0  0  0  0  0  0  0  0  0  0  0
  148.5009  141.9266  153.1567 H   0  0  0  0  0  0  0  0  0  0  0  0
  149.2017  140.5397  153.9327 H   0  0  0  0  0  0  0  0  0  0  0  0
  146.8073  140.1198  153.6395 H   0  0  0  0  0  0  0  0  0  0  0  0
  147.2273  140.1810  155.3262 H   0  0  0  0  0  0  0  0  0  0  0  0
  146.0457  141.5870  156.7651 H   0  0  0  0  0  0  0  0  0  0  0  0
  147.0971  142.8402  156.1613 H   0  0  0  0  0  0  0  0  0  0  0  0
  145.2464  143.9336  157.1779 H   0  0  0  0  0  0  0  0  0  0  0  0
  143.5932  142.1276  157.2814 H   0  0  0  0  0  0  0  0  0  0  0  0
  143.3291  142.1957  155.5478 H   0  0  0  0  0  0  0  0  0  0  0  0
  142.8656  143.5599  156.5635 H   0  0  0  0  0  0  0  0  0  0  0  0
  144.0404  143.3981  153.7168 H   0  0  0  0  0  0  0  0  0  0  0  0
  145.0621  144.7364  151.8804 H   0  0  0  0  0  0  0  0  0  0  0  0
  146.0498  145.6073  153.0531 H   0  0  0  0  0  0  0  0  0  0  0  0
  144.2964  145.7805  153.0738 H   0  0  0  0  0  0  0  0  0  0  0  0
  147.1018  143.3802  153.7651 H   0  0  0  0  0  0  0  0  0  0  0  0
  146.0813  142.4611  152.6812 H   0  0  0  0  0  0  0  0  0  0  0  0
  1  2  1  0  0  0  0
  1 21  1  0  0  0  0
  1 22  1  0  0  0  0
  1 23  1  0  0  0  0
  2 20  1  0  0  0  0
  2  3  2  0  0  0  0
  3  4  1  0  0  0  0
  4  5  2  0  0  0  0
  5  6  1  0  0  0  0
  5 20  1  0  0  0  0
  6  7  1  0  0  0  0
  6 24  1  0  0  0  0
  7  8  2  0  0  0  0
  7  9  1  0  0  0  0
  9 10  1  0  0  0  0
  9 25  1  0  0  0  0
 10 11  1  0  0  0  0
 10 26  1  0  0  0  0
 10 27  1  0  0  0  0
 11 12  1  0  0  0  0
 11 28  1  0  0  0  0
 11 29  1  0  0  0  0
 12 19  1  0  0  0  0
 12 13  1  0  0  0  0
 13 14  1  0  0  0  0
 13 30  1  0  0  0  0
 13 31  1  0  0  0  0
 14 15  1  0  0  0  0
 14 16  1  0  0  0  0
 14 32  1  0  0  0  0
 15 33  1  0  0  0  0
 15 34  1  0  0  0  0
 15 35  1  0  0  0  0
 16 17  1  0  0  0  0
 17 18  1  0  0  0  0
 17 19  1  0  0  0  0
 17 36  1  0  0  0  0
 18 37  1  0  0  0  0
 18 38  1  0  0  0  0
 18 39  1  0  0  0  0
 19 40  1  0  0  0  0
 19 41  1  0  0  0  0
M  END
> <s_m_source_file>
AV-unprocessed.smi

> <i_m_source_file_index>
1641

> <i_lp_mmshare_version>
43012

> <i_f3d_flags>
0

> <s_epik_input>
W0NIM11jMW5uYyhzMSlbTkhdQyg9TylbTkhdW0NIMl1bQ0gyXU4yW0NIMl1bQ0BASF0oW0NIM10pT1tDQEBIXShbQ0gzXSlbQ0gyXTI=

> <s_epik_cmdline>
J2VwaWtfcHl0aG9uJywgJy1waCcsICc3LjAnLCAnLXRuJywgJzgnLCAnLW1hJywgJzIwMCcsICctbWV0YWxfYmluZGluZycsICctaW1hZScsICc8aW5maWxlLm1hZT4nLCAnLW9tYWUnLCAnPG91dGZpbGUubWFlPic=

> <r_lp_tautomer_probability>
1

> <r_epik_Ionization_Penalty>
0.221104

> <r_epik_Ionization_Penalty_Charging>
0

> <r_epik_Ionization_Penalty_Neutral>
0.221104

> <r_epik_State_Penalty>
0.209349

> <r_epik_Charging_Adjusted_Penalty>
0.209349

> <i_epik_Tot_Q>
0

> <i_epik_Tot_abs_Q>
0

> <r_epik_Metal_State_Penalty>
0.560954

> <b_epik_Metal_Only>
0

> <s_lp_Force_Field>
OPLS_2005

> <r_lp_Energy>
24.8312

> <b_lp_Chiralities_Consistent>
1

> <s_lp_Variant>
AV-unprocessed.smi:1641-2

> <Gold.Version>
5.8.1

> <Gold.Id.Protein>
6NUR|6NUR_protein|mol2

> <Gold.PLP.Fitness>
40.9256

> <Gold.PLP.PLP>
-35.9672

> <Gold.PLP.part.hbond>
-2.0000

> <Gold.PLP.part.metal>
0.0000

> <Gold.PLP.part.buried>
-4.8500

> <Gold.PLP.part.nonpolar>
-29.6827

> <Gold.PLP.part.repulsive>
0.6332

> <Gold.PLP.ligand.clash>
0.0000

> <Gold.PLP.ligand.torsion>
0.4392

> <Gold.PLP.Chemscore.Hbond>
1.9440

> <Gold.PLP.Chemscore.CHOScore>
0.0000

> <Gold.PLP.Chemscore.Metal>
0.0000

> <Gold.Chemscore.Hbonds>
donor molecule, donor type, donor heavy atom, donor atom, acceptor molecule, acceptor atom, score
      L1  H     6    24       P1  8028  0.96
      L1  H     9    25       P1  8028  1.00

> <Gold.PLP.Chemscore.Internal.Correction>
0.0049

> <Gold.Rescore>
     Score         DG    S(hbond)    S(metal)    S(lipo)     H(rot)  DE(clash)    DE(int)     intcor
     15.06     -15.75       1.93        0.00      67.54       1.60       0.03       0.66       ----

> <Gold.Chemscore.Fitness>
15.0601

> <Gold.Chemscore.DG>
-15.7529

> <Gold.Chemscore.ZeroCoef>
-5.4800

> <Gold.Chemscore.Hbond>
1.9341

> <Gold.Chemscore.Metal>
0.0000

> <Gold.Chemscore.Lipo>
67.5437

> <Gold.Chemscore.Internal_Hbond>
0.0000

> <Gold.Chemscore.DEClash>
0.0320

> <Gold.Chemscore.DEInternal>
0.6608

> <Gold.Chemscore.Rot>
1.5975

> <Gold.Chemscore.Internal.Correction>
   9.000000E+99

> <Gold.Chemscore.Hbonds>
donor molecule, donor type, donor heavy atom, donor atom, acceptor molecule, acceptor atom, score
      L1  H     6    24       P1  8028  0.92
      L1  H     9    25       P1  8028  0.97

> <Gold.Chemscore.Hbond.Weighted>
-6.4599

> <Gold.Chemscore.Metal.Weighted>
-0.0000

> <Gold.Chemscore.Lipo.Weighted>
-7.9026

> <Gold.Chemscore.Internal_Hbond.Weighted>
0.0000

> <Gold.Chemscore.DEClash.Weighted>
0.0320

> <Gold.Chemscore.DEInternal.Weighted>
0.6608

> <Gold.Chemscore.Rot.Weighted>
4.0896

> <Gold.Chemscore.Internal.Correction.Weighted>
   9.000000E+99

> <Gold.Protein.RotatedTorsions>
[ 6907 6896 6895 6894 ] final  169.87 input  -60.11 | X-H torsion
[ 7974 7965 7964 7962 ] final   11.66 input  175.53 | X-H torsion
[ 8008 7997 7996 7995 ] final   48.02 input   59.86 | X-H torsion
[ 10167 10162 10161 10158 ] final   41.29 input  -65.29 | X-H torsion
[ 10718 10713 10712 10709 ] final  -56.85 input   66.30 | X-H torsion
[ 10763 10752 10751 10750 ] final  -74.00 input  -60.55 | X-H torsion
[ 11005 11000 10999 10996 ] final  131.42 input  -57.11 | X-H torsion

> <Gold.Protein.ActiveResidues>
 VAL166  LYS551  ARG553  GLY616  TRP617  ASP618  TYR619  PRO620  LYS621  CYS622 
 ASP623  PHE694  ASN695  SER759  ASP760  ASP761  ALA762  ILE779  LEU786  VAL792 
 PHE793  MET794  SER795  GLU796  ALA797  LYS798  CYS799  TRP800  GLU811  SER814 

> <Gold.Protein.RotatedAtoms>
  151.8251  133.3400  159.3595 H   0  0  0  0  0  0  0  0  0  0  0  0  # atno 6907 bound_to 6896
  150.7282  134.5537  159.5816 H   0  0  0  0  0  0  0  0  0  0  0  0  # atno 6908 bound_to 6896
  152.2977  134.7648  160.0415 H   0  0  0  0  0  0  0  0  0  0  0  0  # atno 6909 bound_to 6896
  146.2366  139.9451  142.8478 H   0  0  0  0  0  0  0  0  0  0  0  0  # atno 7974 bound_to 7965
  155.3787  140.3427  155.4246 H   0  0  0  0  0  0  0  0  0  0  0  0  # atno 8008 bound_to 7997
  156.1622  140.1604  156.8625 H   0  0  0  0  0  0  0  0  0  0  0  0  # atno 8009 bound_to 7997
  154.5151  140.0780  156.8047 H   0  0  0  0  0  0  0  0  0  0  0  0  # atno 8010 bound_to 7997
  140.3658  144.2169  150.6135 H   0  0  0  0  0  0  0  0  0  0  0  0  # atno 10167 bound_to 10162
  156.1256  130.4163  150.0361 H   0  0  0  0  0  0  0  0  0  0  0  0  # atno 10718 bound_to 10713
  154.4672  135.5878  153.6296 H   0  0  0  0  0  0  0  0  0  0  0  0  # atno 10763 bound_to 10752
  152.9830  135.6058  154.3412 H   0  0  0  0  0  0  0  0  0  0  0  0  # atno 10764 bound_to 10752
  154.3290  135.2842  155.2460 H   0  0  0  0  0  0  0  0  0  0  0  0  # atno 10765 bound_to 10752
  139.9729  134.9572  156.9436 H   0  0  0  0  0  0  0  0  0  0  0  0  # atno 11005 bound_to 11000
  145.1915  140.9813  143.4208 LP  0  0  0  0  0  0  0  0  0  0  0  0  # atno 17320 bound_to 7965
  144.9853  139.3742  143.6241 LP  0  0  0  0  0  0  0  0  0  0  0  0  # atno 17321 bound_to 7965
  140.5082  143.2298  151.8576 LP  0  0  0  0  0  0  0  0  0  0  0  0  # atno 17342 bound_to 10162
  139.4809  144.4981  151.9097 LP  0  0  0  0  0  0  0  0  0  0  0  0  # atno 17343 bound_to 10162
  156.8287  130.9384  151.3638 LP  0  0  0  0  0  0  0  0  0  0  0  0  # atno 17370 bound_to 10713
  157.6438  130.8827  149.9499 LP  0  0  0  0  0  0  0  0  0  0  0  0  # atno 17371 bound_to 10713
  140.5255  134.0865  155.7302 LP  0  0  0  0  0  0  0  0  0  0  0  0  # atno 17394 bound_to 11000
  141.1408  133.9141  157.2330 LP  0  0  0  0  0  0  0  0  0  0  0  0  # atno 17395 bound_to 11000

$$$$
