AV-unprocessed.smi:1433|AV-procd|sdf|5838|dock4
  -GOLD-   22720 5503D 1   1.00000     0.00000
 Structure written by MMmdl.
 44 45  0  0  0  0  0  0  0  0  1 V2000
  150.7327  142.1298  157.6158 C   0  0  0  0  0  0  0  0  0  0  0  0
  150.5984  141.6589  156.1639 C   0  0  1  0  0  0  0  0  0  0  0  0
  151.0911  140.2118  155.9749 C   0  0  0  0  0  0  0  0  0  0  0  0
  150.9024  139.7164  154.6071 N   0  0  0  0  0  0  0  0  0  0  0  0
  151.3510  138.3140  154.4392 C   0  0  1  0  0  0  0  0  0  0  0  0
  152.8597  138.1289  154.7425 C   0  0  0  0  0  0  0  0  0  0  0  0
  150.5351  137.2980  155.2926 C   0  0  0  0  0  0  0  0  0  0  0  0
  149.8762  136.2617  154.5021 N   0  0  0  0  0  0  0  0  0  0  0  0
  149.3777  135.1159  154.9919 C   0  0  0  0  0  0  0  0  0  0  0  0
  149.4239  134.8093  156.1833 O   0  0  0  0  0  0  0  0  0  0  0  0
  148.7261  134.1685  153.9843 C   0  0  0  0  0  0  0  0  0  0  0  0
  149.1623  132.8004  154.1970 N   0  0  0  0  0  0  0  0  0  0  0  0
  148.9464  131.6984  153.3958 C   0  0  0  0  0  0  0  0  0  0  0  0
  149.5421  130.6305  154.0039 C   0  0  0  0  0  0  0  0  0  0  0  0
  150.1010  131.1854  155.1892 C   0  0  0  0  0  0  0  0  0  0  0  0
  149.8727  132.4842  155.3021 N   0  0  0  0  0  0  0  0  0  0  0  0
  149.4904  139.8983  154.2522 C   0  0  0  0  0  0  0  0  0  0  0  0
  149.0009  141.3461  154.4467 C   0  0  1  0  0  0  0  0  0  0  0  0
  147.5046  141.4963  154.1518 C   0  0  0  0  0  0  0  0  0  0  0  0
  149.2280  141.7379  155.7944 O   0  0  0  0  0  0  0  0  0  0  0  0
  151.7723  142.1005  157.9426 H   0  0  0  0  0  0  0  0  0  0  0  0
  150.1516  141.5008  158.2906 H   0  0  0  0  0  0  0  0  0  0  0  0
  150.3780  143.1546  157.7273 H   0  0  0  0  0  0  0  0  0  0  0  0
  151.1770  142.3282  155.5248 H   0  0  0  0  0  0  0  0  0  0  0  0
  152.1455  140.2036  156.2430 H   0  0  0  0  0  0  0  0  0  0  0  0
  150.5780  139.5548  156.6790 H   0  0  0  0  0  0  0  0  0  0  0  0
  151.2045  138.0434  153.3924 H   0  0  0  0  0  0  0  0  0  0  0  0
  153.1759  137.0896  154.6641 H   0  0  0  0  0  0  0  0  0  0  0  0
  153.1040  138.4704  155.7487 H   0  0  0  0  0  0  0  0  0  0  0  0
  153.4921  138.6684  154.0391 H   0  0  0  0  0  0  0  0  0  0  0  0
  151.1906  136.8087  156.0138 H   0  0  0  0  0  0  0  0  0  0  0  0
  149.7518  137.7874  155.8703 H   0  0  0  0  0  0  0  0  0  0  0  0
  149.7980  136.4268  153.5089 H   0  0  0  0  0  0  0  0  0  0  0  0
  147.6416  134.2117  154.0917 H   0  0  0  0  0  0  0  0  0  0  0  0
  148.9580  134.4714  152.9615 H   0  0  0  0  0  0  0  0  0  0  0  0
  148.3920  131.7661  152.4712 H   0  0  0  0  0  0  0  0  0  0  0  0
  149.5722  129.6086  153.6563 H   0  0  0  0  0  0  0  0  0  0  0  0
  150.6620  130.6862  155.9653 H   0  0  0  0  0  0  0  0  0  0  0  0
  149.3236  139.6437  153.2071 H   0  0  0  0  0  0  0  0  0  0  0  0
  148.8723  139.2225  154.8456 H   0  0  0  0  0  0  0  0  0  0  0  0
  149.5563  142.0120  153.7839 H   0  0  0  0  0  0  0  0  0  0  0  0
  147.2761  141.2169  153.1229 H   0  0  0  0  0  0  0  0  0  0  0  0
  147.1817  142.5276  154.2955 H   0  0  0  0  0  0  0  0  0  0  0  0
  146.9076  140.8657  154.8111 H   0  0  0  0  0  0  0  0  0  0  0  0
  1  2  1  0  0  0  0
  1 21  1  0  0  0  0
  1 22  1  0  0  0  0
  1 23  1  0  0  0  0
  2 20  1  0  0  0  0
  2  3  1  0  0  0  0
  2 24  1  0  0  0  0
  3  4  1  0  0  0  0
  3 25  1  0  0  0  0
  3 26  1  0  0  0  0
  4  5  1  0  0  0  0
  4 17  1  0  0  0  0
  5  6  1  0  0  0  0
  5  7  1  0  0  0  0
  5 27  1  0  0  0  0
  6 28  1  0  0  0  0
  6 29  1  0  0  0  0
  6 30  1  0  0  0  0
  7  8  1  0  0  0  0
  7 31  1  0  0  0  0
  7 32  1  0  0  0  0
  8  9  1  0  0  0  0
  8 33  1  0  0  0  0
  9 10  2  0  0  0  0
  9 11  1  0  0  0  0
 11 12  1  0  0  0  0
 11 34  1  0  0  0  0
 11 35  1  0  0  0  0
 12 16  1  0  0  0  0
 12 13  1  0  0  0  0
 13 14  2  0  0  0  0
 13 36  1  0  0  0  0
 14 15  1  0  0  0  0
 14 37  1  0  0  0  0
 15 16  2  0  0  0  0
 15 38  1  0  0  0  0
 17 18  1  0  0  0  0
 17 39  1  0  0  0  0
 17 40  1  0  0  0  0
 18 19  1  0  0  0  0
 18 20  1  0  0  0  0
 18 41  1  0  0  0  0
 19 42  1  0  0  0  0
 19 43  1  0  0  0  0
 19 44  1  0  0  0  0
M  END
> <s_m_source_file>
AV-unprocessed.smi

> <i_m_source_file_index>
1433

> <i_lp_mmshare_version>
43012

> <i_f3d_flags>
0

> <s_epik_input>
W0NIM11bQ0BASF0xW0NIMl1OKFtDSDJdW0NASF0oTzEpW0NIM10pW0NASF0oW0NIM10pW0NIMl1bTkhdQyg9TylbQ0gyXW4yW2NIXVtjSF1bY0hdbjI=

> <s_epik_cmdline>
J2VwaWtfcHl0aG9uJywgJy1waCcsICc3LjAnLCAnLXRuJywgJzgnLCAnLW1hJywgJzIwMCcsICctbWV0YWxfYmluZGluZycsICctaW1hZScsICc8aW5maWxlLm1hZT4nLCAnLW9tYWUnLCAnPG91dGZpbGUubWFlPic=

> <r_lp_tautomer_probability>
1

> <r_epik_Ionization_Penalty>
0.196927

> <r_epik_Ionization_Penalty_Charging>
0

> <r_epik_Ionization_Penalty_Neutral>
0.196927

> <r_epik_State_Penalty>
0.186684

> <r_epik_Charging_Adjusted_Penalty>
0.186684

> <i_epik_Tot_Q>
0

> <i_epik_Tot_abs_Q>
0

> <r_epik_Metal_State_Penalty>
0.186682

> <b_epik_Metal_Only>
0

> <s_lp_Force_Field>
OPLS_2005

> <r_lp_Energy>
27.7845

> <b_lp_Chiralities_Consistent>
1

> <s_lp_Variant>
AV-unprocessed.smi:1433-4

> <Gold.Version>
5.8.1

> <Gold.Id.Protein>
6NUR|6NUR_protein|mol2

> <Gold.PLP.Fitness>
46.3313

> <Gold.PLP.PLP>
-39.6399

> <Gold.PLP.part.hbond>
-2.2108

> <Gold.PLP.part.metal>
0.0000

> <Gold.PLP.part.buried>
-3.3428

> <Gold.PLP.part.nonpolar>
-34.2315

> <Gold.PLP.part.repulsive>
0.9121

> <Gold.PLP.ligand.clash>
0.0000

> <Gold.PLP.ligand.torsion>
1.1112

> <Gold.PLP.Chemscore.Hbond>
1.9500

> <Gold.PLP.Chemscore.CHOScore>
0.9993

> <Gold.PLP.Chemscore.Metal>
0.0000

> <Gold.Chemscore.Hbonds>
donor molecule, donor type, donor heavy atom, donor atom, acceptor molecule, acceptor atom, score
      L1  H     8    33       P1  7948  1.00
      P1  H  7989  7998       L1     4  1.00
      L1  C    13    36       P1 10747  0.95

> <Gold.PLP.Chemscore.Internal.Correction>
0.0660

> <Gold.Rescore>
     Score         DG    S(hbond)    S(metal)    S(lipo)     H(rot)  DE(clash)    DE(int)     intcor
     11.17     -14.43       0.98        0.00      88.05       1.80       0.81       2.46       ----

> <Gold.Chemscore.Fitness>
11.1656

> <Gold.Chemscore.DG>
-14.4330

> <Gold.Chemscore.ZeroCoef>
-5.4800

> <Gold.Chemscore.Hbond>
0.9787

> <Gold.Chemscore.Metal>
0.0000

> <Gold.Chemscore.Lipo>
88.0498

> <Gold.Chemscore.Internal_Hbond>
0.0000

> <Gold.Chemscore.DEClash>
0.8090

> <Gold.Chemscore.DEInternal>
2.4584

> <Gold.Chemscore.Rot>
1.8038

> <Gold.Chemscore.Internal.Correction>
   9.000000E+99

> <Gold.Chemscore.Hbonds>
donor molecule, donor type, donor heavy atom, donor atom, acceptor molecule, acceptor atom, score
      L1  H     8    33       P1  7948  0.25
      P1  H  7989  7998       L1     4  0.16

> <Gold.Chemscore.Hbond.Weighted>
-3.2690

> <Gold.Chemscore.Metal.Weighted>
-0.0000

> <Gold.Chemscore.Lipo.Weighted>
-10.3018

> <Gold.Chemscore.Internal_Hbond.Weighted>
0.0000

> <Gold.Chemscore.DEClash.Weighted>
0.8090

> <Gold.Chemscore.DEInternal.Weighted>
2.4584

> <Gold.Chemscore.Rot.Weighted>
4.6178

> <Gold.Chemscore.Internal.Correction.Weighted>
   9.000000E+99

> <Gold.Protein.RotatedTorsions>
[ 6907 6896 6895 6894 ] final -133.74 input  -60.11 | X-H torsion
[ 7974 7965 7964 7962 ] final    3.67 input  175.53 | X-H torsion
[ 8008 7997 7996 7995 ] final  -23.22 input   59.86 | X-H torsion
[ 10167 10162 10161 10158 ] final    9.08 input  -65.29 | X-H torsion
[ 10718 10713 10712 10709 ] final  -90.43 input   66.30 | X-H torsion
[ 10763 10752 10751 10750 ] final  161.86 input  -60.55 | X-H torsion
[ 11005 11000 10999 10996 ] final   24.56 input  -57.11 | X-H torsion

> <Gold.Protein.ActiveResidues>
 VAL166  LYS551  ARG553  GLY616  TRP617  ASP618  TYR619  PRO620  LYS621  CYS622 
 ASP623  PHE694  ASN695  SER759  ASP760  ASP761  ALA762  ILE779  LEU786  VAL792 
 PHE793  MET794  SER795  GLU796  ALA797  LYS798  CYS799  TRP800  GLU811  SER814 

> <Gold.Protein.RotatedAtoms>
  150.9776  133.6278  159.2727 H   0  0  0  0  0  0  0  0  0  0  0  0  # atno 6907 bound_to 6896
  151.3545  135.0890  159.9423 H   0  0  0  0  0  0  0  0  0  0  0  0  # atno 6908 bound_to 6896
  152.5205  133.9362  159.7659 H   0  0  0  0  0  0  0  0  0  0  0  0  # atno 6909 bound_to 6896
  146.2445  140.0650  142.8366 H   0  0  0  0  0  0  0  0  0  0  0  0  # atno 7974 bound_to 7965
  154.4598  140.1986  156.0277 H   0  0  0  0  0  0  0  0  0  0  0  0  # atno 8008 bound_to 7997
  156.0818  140.3270  155.7675 H   0  0  0  0  0  0  0  0  0  0  0  0  # atno 8009 bound_to 7997
  155.5100  140.0561  157.2916 H   0  0  0  0  0  0  0  0  0  0  0  0  # atno 8010 bound_to 7997
  140.6276  143.8066  150.7253 H   0  0  0  0  0  0  0  0  0  0  0  0  # atno 10167 bound_to 10162
  155.9988  130.4910  150.5322 H   0  0  0  0  0  0  0  0  0  0  0  0  # atno 10718 bound_to 10713
  154.2695  135.2766  155.2744 H   0  0  0  0  0  0  0  0  0  0  0  0  # atno 10763 bound_to 10752
  154.5314  135.5728  153.6765 H   0  0  0  0  0  0  0  0  0  0  0  0  # atno 10764 bound_to 10752
  152.9947  135.6228  154.2849 H   0  0  0  0  0  0  0  0  0  0  0  0  # atno 10765 bound_to 10752
  140.3573  134.2163  155.7675 H   0  0  0  0  0  0  0  0  0  0  0  0  # atno 11005 bound_to 11000
  145.0866  140.9257  143.4793 LP  0  0  0  0  0  0  0  0  0  0  0  0  # atno 17320 bound_to 7965
  145.0814  139.2957  143.5781 LP  0  0  0  0  0  0  0  0  0  0  0  0  # atno 17321 bound_to 7965
  140.1670  143.4227  152.2027 LP  0  0  0  0  0  0  0  0  0  0  0  0  # atno 17342 bound_to 10162
  139.5494  144.7325  151.4481 LP  0  0  0  0  0  0  0  0  0  0  0  0  # atno 17343 bound_to 10162
  157.3270  131.0692  151.1889 LP  0  0  0  0  0  0  0  0  0  0  0  0  # atno 17370 bound_to 10713
  157.2783  130.6737  149.6053 LP  0  0  0  0  0  0  0  0  0  0  0  0  # atno 17371 bound_to 10713
  141.1994  133.8011  157.0536 LP  0  0  0  0  0  0  0  0  0  0  0  0  # atno 17394 bound_to 11000
  140.0654  134.9731  157.1377 LP  0  0  0  0  0  0  0  0  0  0  0  0  # atno 17395 bound_to 11000

$$$$
