AV-unprocessed.smi:2253|AV-procd|sdf|9115|dock3
  -GOLD-   2272012323D 1   1.00000     0.00000
 Structure written by MMmdl.
 52 54  0  0  0  0  0  0  0  0  3 V2000
  144.6213  134.8574  150.5114 C   0  0  0  0  0  0  0  0  0  0  0  0
  145.2628  135.8852  151.3598 N   0  3  2  0  0  0  0  0  0  0  0  0
  144.3294  136.4584  152.3576 C   0  0  0  0  0  0  0  0  0  0  0  0
  145.0528  137.4367  153.2998 C   0  0  0  0  0  0  0  0  0  0  0  0
  145.7580  138.5799  152.5259 C   0  0  1  0  0  0  0  0  0  0  0  0
  146.5297  139.5312  153.3936 N   0  3  2  0  0  0  0  0  0  0  0  0
  146.9249  140.8154  152.7435 C   0  0  0  0  0  0  0  0  0  0  0  0
  147.6036  141.7749  153.7365 C   0  0  0  0  0  0  0  0  0  0  0  0
  148.8219  141.1271  154.4068 C   0  0  1  0  0  0  0  0  0  0  0  0
  149.3828  142.0364  155.4019 N   0  0  0  0  0  0  0  0  0  0  0  0
  150.2205  141.6810  156.3870 C   0  0  0  0  0  0  0  0  0  0  0  0
  150.6096  140.5260  156.5581 O   0  0  0  0  0  0  0  0  0  0  0  0
  150.5744  142.7439  157.1300 N   0  0  0  0  0  0  0  0  0  0  0  0
  151.4318  142.7986  158.2635 C   0  0  0  0  0  0  0  0  0  0  0  0
  152.0815  141.6741  158.8284 C   0  0  0  0  0  0  0  0  0  0  0  0
  152.8940  141.8641  159.9642 C   0  0  0  0  0  0  0  0  0  0  0  0
  153.0826  143.0641  160.5528 N   0  0  0  0  0  0  0  0  0  0  0  0
  152.4514  144.1316  160.0199 C   0  0  0  0  0  0  0  0  0  0  0  0
  151.6177  144.0512  158.8863 C   0  0  0  0  0  0  0  0  0  0  0  0
  151.0099  145.1624  158.4049 F   0  0  0  0  0  0  0  0  0  0  0  0
  148.3919  139.8011  155.0530 C   0  0  0  0  0  0  0  0  0  0  0  0
  147.7146  138.8814  154.0249 C   0  0  0  0  0  0  0  0  0  0  0  0
  146.6823  137.9288  151.4688 C   0  0  0  0  0  0  0  0  0  0  0  0
  145.9244  136.9442  150.5622 C   0  0  0  0  0  0  0  0  0  0  0  0
  143.8218  135.2893  149.9080 H   0  0  0  0  0  0  0  0  0  0  0  0
  144.1961  134.0621  151.1244 H   0  0  0  0  0  0  0  0  0  0  0  0
  145.3505  134.4038  149.8393 H   0  0  0  0  0  0  0  0  0  0  0  0
  143.5111  136.9667  151.8446 H   0  0  0  0  0  0  0  0  0  0  0  0
  143.8834  135.6533  152.9434 H   0  0  0  0  0  0  0  0  0  0  0  0
  144.3073  137.8366  153.9874 H   0  0  0  0  0  0  0  0  0  0  0  0
  145.7792  136.8882  153.9018 H   0  0  0  0  0  0  0  0  0  0  0  0
  144.9813  139.1509  152.0140 H   0  0  0  0  0  0  0  0  0  0  0  0
  147.5870  140.6113  151.9005 H   0  0  0  0  0  0  0  0  0  0  0  0
  146.0538  141.3394  152.3528 H   0  0  0  0  0  0  0  0  0  0  0  0
  147.9051  142.6858  153.2175 H   0  0  0  0  0  0  0  0  0  0  0  0
  146.8803  142.0778  154.4953 H   0  0  0  0  0  0  0  0  0  0  0  0
  149.5728  140.9273  153.6395 H   0  0  0  0  0  0  0  0  0  0  0  0
  149.1190  143.0088  155.3321 H   0  0  0  0  0  0  0  0  0  0  0  0
  150.2280  143.6386  156.8157 H   0  0  0  0  0  0  0  0  0  0  0  0
  151.9679  140.6787  158.4291 H   0  0  0  0  0  0  0  0  0  0  0  0
  153.4024  141.0255  160.4166 H   0  0  0  0  0  0  0  0  0  0  0  0
  152.6140  145.0785  160.5133 H   0  0  0  0  0  0  0  0  0  0  0  0
  149.2572  139.2929  155.4806 H   0  0  0  0  0  0  0  0  0  0  0  0
  147.7060  139.9918  155.8798 H   0  0  0  0  0  0  0  0  0  0  0  0
  147.4336  137.9601  154.5311 H   0  0  0  0  0  0  0  0  0  0  0  0
  148.4306  138.6021  153.2502 H   0  0  0  0  0  0  0  0  0  0  0  0
  147.1488  138.6781  150.8316 H   0  0  0  0  0  0  0  0  0  0  0  0
  147.4982  137.4046  151.9689 H   0  0  0  0  0  0  0  0  0  0  0  0
  146.6216  136.4872  149.8586 H   0  0  0  0  0  0  0  0  0  0  0  0
  145.1790  137.4769  149.9690 H   0  0  0  0  0  0  0  0  0  0  0  0
  145.9071  139.7907  154.1458 H   0  0  0  0  0  0  0  0  0  0  0  0
  145.9899  135.4124  151.8781 H   0  0  0  0  0  0  0  0  0  0  0  0
  1  2  1  0  0  0  0
  1 25  1  0  0  0  0
  1 26  1  0  0  0  0
  1 27  1  0  0  0  0
  2 24  1  0  0  0  0
  2  3  1  0  0  0  0
  2 52  1  0  0  0  0
  3  4  1  0  0  0  0
  3 28  1  0  0  0  0
  3 29  1  0  0  0  0
  4  5  1  0  0  0  0
  4 30  1  0  0  0  0
  4 31  1  0  0  0  0
  5  6  1  0  0  0  0
  5 23  1  0  0  0  0
  5 32  1  0  0  0  0
  6 22  1  0  0  0  0
  6  7  1  0  0  0  0
  6 51  1  0  0  0  0
  7  8  1  0  0  0  0
  7 33  1  0  0  0  0
  7 34  1  0  0  0  0
  8  9  1  0  0  0  0
  8 35  1  0  0  0  0
  8 36  1  0  0  0  0
  9 10  1  0  0  0  0
  9 21  1  0  0  0  0
  9 37  1  0  0  0  0
 10 11  1  0  0  0  0
 10 38  1  0  0  0  0
 11 12  2  0  0  0  0
 11 13  1  0  0  0  0
 13 14  1  0  0  0  0
 13 39  1  0  0  0  0
 14 19  1  0  0  0  0
 14 15  2  0  0  0  0
 15 16  1  0  0  0  0
 15 40  1  0  0  0  0
 16 17  2  0  0  0  0
 16 41  1  0  0  0  0
 17 18  1  0  0  0  0
 18 19  2  0  0  0  0
 18 42  1  0  0  0  0
 19 20  1  0  0  0  0
 21 22  1  0  0  0  0
 21 43  1  0  0  0  0
 21 44  1  0  0  0  0
 22 45  1  0  0  0  0
 22 46  1  0  0  0  0
 23 24  1  0  0  0  0
 23 47  1  0  0  0  0
 23 48  1  0  0  0  0
 24 49  1  0  0  0  0
 24 50  1  0  0  0  0
M  CHG  1   2   1
M  CHG  1   6   1
M  END
> <s_m_source_file>
AV-unprocessed.smi

> <i_m_source_file_index>
2253

> <i_lp_mmshare_version>
43012

> <i_f3d_flags>
0

> <s_epik_input>
W0NIM11OMVtDSDJdW0NIMl1bQ0hdKFtDSDJdW0NIMl0xKU4yW0NIMl1bQ0gyXVtDSF0oW0NIMl1bQ0gyXTIpW05IXUMoPU8pW05IXWMzW2NIXVtjSF1uW2NIXWMzRg==

> <s_epik_cmdline>
J2VwaWtfcHl0aG9uJywgJy1waCcsICc3LjAnLCAnLXRuJywgJzgnLCAnLW1hJywgJzIwMCcsICctbWV0YWxfYmluZGluZycsICctaW1hZScsICc8aW5maWxlLm1hZT4nLCAnLW9tYWUnLCAnPG91dGZpbGUubWFlPic=

> <r_epik_Ionization_Penalty>
0.183544

> <r_epik_Ionization_Penalty_Charging>
0.180787

> <r_epik_Ionization_Penalty_Neutral>
0.00275649

> <r_epik_State_Penalty>
0.153592

> <r_epik_Charging_Adjusted_Penalty>
0.334379

> <i_epik_Tot_Q>
2

> <i_epik_Tot_abs_Q>
2

> <r_epik_Metal_State_Penalty>
0.153693

> <b_epik_Metal_Only>
0

> <s_lp_Force_Field>
OPLS_2005

> <r_lp_Energy>
44.9789

> <b_lp_Chiralities_Consistent>
1

> <s_lp_Variant>
AV-unprocessed.smi:2253-1

> <Gold.Version>
5.8.1

> <Gold.Id.Protein>
6NUR|6NUR_protein|mol2

> <Gold.PLP.Fitness>
46.3956

> <Gold.PLP.PLP>
-41.2064

> <Gold.PLP.part.hbond>
-2.6509

> <Gold.PLP.part.metal>
0.0000

> <Gold.PLP.part.buried>
2.5371

> <Gold.PLP.part.nonpolar>
-41.7647

> <Gold.PLP.part.repulsive>
0.2328

> <Gold.PLP.ligand.clash>
0.0000

> <Gold.PLP.ligand.torsion>
0.3601

> <Gold.PLP.Chemscore.Hbond>
1.9588

> <Gold.PLP.Chemscore.CHOScore>
0.0000

> <Gold.PLP.Chemscore.Metal>
0.0000

> <Gold.Chemscore.Hbonds>
donor molecule, donor type, donor heavy atom, donor atom, acceptor molecule, acceptor atom, score
      L1  H    10    38       P1  8028  1.00
      L1  H    13    39       P1  8028  0.91

> <Gold.PLP.Chemscore.Internal.Correction>
0.0332

> <Gold.Rescore>
     Score         DG    S(hbond)    S(metal)    S(lipo)     H(rot)  DE(clash)    DE(int)     intcor
     18.35     -23.32       1.97        0.00     123.64       1.26       2.06       2.91       ----

> <Gold.Chemscore.Fitness>
18.3497

> <Gold.Chemscore.DG>
-23.3171

> <Gold.Chemscore.ZeroCoef>
-5.4800

> <Gold.Chemscore.Hbond>
1.9719

> <Gold.Chemscore.Metal>
0.0000

> <Gold.Chemscore.Lipo>
123.6417

> <Gold.Chemscore.Internal_Hbond>
0.0000

> <Gold.Chemscore.DEClash>
2.0623

> <Gold.Chemscore.DEInternal>
2.9051

> <Gold.Chemscore.Rot>
1.2559

> <Gold.Chemscore.Internal.Correction>
   9.000000E+99

> <Gold.Chemscore.Hbonds>
donor molecule, donor type, donor heavy atom, donor atom, acceptor molecule, acceptor atom, score
      L1  H    10    38       P1  8028  1.00
      L1  H    13    39       P1  8028  0.84

> <Gold.Chemscore.Hbond.Weighted>
-6.5862

> <Gold.Chemscore.Metal.Weighted>
-0.0000

> <Gold.Chemscore.Lipo.Weighted>
-14.4661

> <Gold.Chemscore.Internal_Hbond.Weighted>
0.0000

> <Gold.Chemscore.DEClash.Weighted>
2.0623

> <Gold.Chemscore.DEInternal.Weighted>
2.9051

> <Gold.Chemscore.Rot.Weighted>
3.2151

> <Gold.Chemscore.Internal.Correction.Weighted>
   9.000000E+99

> <Gold.Protein.RotatedTorsions>
[ 6907 6896 6895 6894 ] final  -43.75 input  -60.11 | X-H torsion
[ 7974 7965 7964 7962 ] final  127.23 input  175.53 | X-H torsion
[ 8008 7997 7996 7995 ] final  -72.42 input   59.86 | X-H torsion
[ 10167 10162 10161 10158 ] final  104.49 input  -65.29 | X-H torsion
[ 10718 10713 10712 10709 ] final   35.29 input   66.30 | X-H torsion
[ 10763 10752 10751 10750 ] final   20.41 input  -60.55 | X-H torsion
[ 11005 11000 10999 10996 ] final  -45.49 input  -57.11 | X-H torsion

> <Gold.Protein.ActiveResidues>
 VAL166  LYS551  ARG553  GLY616  TRP617  ASP618  TYR619  PRO620  LYS621  CYS622 
 ASP623  PHE694  ASN695  SER759  ASP760  ASP761  ALA762  ILE779  LEU786  VAL792 
 PHE793  MET794  SER795  GLU796  ALA797  LYS798  CYS799  TRP800  GLU811  SER814 

> <Gold.Protein.RotatedAtoms>
  150.9405  134.8814  159.7608 H   0  0  0  0  0  0  0  0  0  0  0  0  # atno 6907 bound_to 6896
  152.5078  134.3949  159.9406 H   0  0  0  0  0  0  0  0  0  0  0  0  # atno 6908 bound_to 6896
  151.3971  133.3730  159.2762 H   0  0  0  0  0  0  0  0  0  0  0  0  # atno 6909 bound_to 6896
  145.0529  139.3868  143.5045 H   0  0  0  0  0  0  0  0  0  0  0  0  # atno 7974 bound_to 7965
  154.5165  140.0797  156.8091 H   0  0  0  0  0  0  0  0  0  0  0  0  # atno 8008 bound_to 7997
  155.3669  140.3421  155.4224 H   0  0  0  0  0  0  0  0  0  0  0  0  # atno 8009 bound_to 7997
  156.1633  140.1595  156.8562 H   0  0  0  0  0  0  0  0  0  0  0  0  # atno 8010 bound_to 7997
  139.7172  144.7066  151.0930 H   0  0  0  0  0  0  0  0  0  0  0  0  # atno 10167 bound_to 10162
  157.3208  130.7447  149.6784 H   0  0  0  0  0  0  0  0  0  0  0  0  # atno 10718 bound_to 10713
  153.1080  135.6689  153.9552 H   0  0  0  0  0  0  0  0  0  0  0  0  # atno 10763 bound_to 10752
  153.9103  135.3026  155.3450 H   0  0  0  0  0  0  0  0  0  0  0  0  # atno 10764 bound_to 10752
  154.7500  135.5039  153.9349 H   0  0  0  0  0  0  0  0  0  0  0  0  # atno 10765 bound_to 10752
  141.0519  133.6740  156.3020 H   0  0  0  0  0  0  0  0  0  0  0  0  # atno 11005 bound_to 11000
  146.3519  140.0188  142.8660 LP  0  0  0  0  0  0  0  0  0  0  0  0  # atno 17320 bound_to 7965
  145.1505  140.9620  143.4435 LP  0  0  0  0  0  0  0  0  0  0  0  0  # atno 17321 bound_to 7965
  140.7746  143.5213  150.9533 LP  0  0  0  0  0  0  0  0  0  0  0  0  # atno 17342 bound_to 10162
  139.8899  143.6966  152.3146 LP  0  0  0  0  0  0  0  0  0  0  0  0  # atno 17343 bound_to 10162
  155.9686  130.4223  150.4512 LP  0  0  0  0  0  0  0  0  0  0  0  0  # atno 17370 bound_to 10713
  157.2527  131.0550  151.2369 LP  0  0  0  0  0  0  0  0  0  0  0  0  # atno 17371 bound_to 10713
  140.6039  134.5526  157.5522 LP  0  0  0  0  0  0  0  0  0  0  0  0  # atno 17394 bound_to 11000
  139.9357  134.7879  156.0809 LP  0  0  0  0  0  0  0  0  0  0  0  0  # atno 17395 bound_to 11000

$$$$
