AV-unprocessed.smi:3003|AV-procd|sdf|11438|dock7
  -GOLD-   2272016363D 1   1.00000     0.00000
 Structure written by MMmdl.
 41 42  0  0  0  0  0  0  0  0  1 V2000
  144.5331  131.9181  150.5078 C   0  0  0  0  0  0  0  0  0  0  0  0
  145.6911  131.3510  151.7832 S   0  0  0  0  0  0  0  0  0  0  0  0
  146.7121  132.8384  152.0051 C   0  0  1  0  0  0  0  0  0  0  0  0
  145.8206  134.0602  152.2775 C   0  0  0  0  0  0  0  0  0  0  0  0
  147.7494  132.6608  153.1201 C   0  0  0  0  0  0  0  0  0  0  0  0
  147.8014  131.6091  153.7587 O   0  0  0  0  0  0  0  0  0  0  0  0
  148.5714  133.6978  153.3457 N   0  0  0  0  0  0  0  0  0  0  0  0
  149.5997  133.7357  154.3804 C   0  0  0  0  0  0  0  0  0  0  0  0
  149.0664  134.0541  155.7697 C   0  0  0  0  0  0  0  0  0  0  0  0
  147.7156  134.3966  155.9870 C   0  0  0  0  0  0  0  0  0  0  0  0
  147.2830  134.6748  157.2974 C   0  0  0  0  0  0  0  0  0  0  0  0
  148.2136  134.6062  158.3616 C   0  0  0  0  0  0  0  0  0  0  0  0
  147.7991  134.8710  159.6852 N   0  0  0  0  0  0  0  0  0  0  0  0
  147.6920  133.7041  160.5581 C   0  0  0  0  0  0  0  0  0  0  0  0
  146.9544  134.0714  161.8574 C   0  0  0  0  0  0  0  0  0  0  0  0
  147.6012  135.1735  162.4852 O   0  0  0  0  0  0  0  0  0  0  0  0
  147.5917  136.3321  161.6584 C   0  0  0  0  0  0  0  0  0  0  0  0
  148.3560  136.0448  160.3552 C   0  0  0  0  0  0  0  0  0  0  0  0
  149.5155  134.2940  158.1450 N   0  0  0  0  0  0  0  0  0  0  0  0
  149.9247  134.0263  156.8871 C   0  0  0  0  0  0  0  0  0  0  0  0
  143.8129  131.1317  150.2821 H   0  0  0  0  0  0  0  0  0  0  0  0
  145.0626  132.1710  149.5895 H   0  0  0  0  0  0  0  0  0  0  0  0
  143.9876  132.7970  150.8514 H   0  0  0  0  0  0  0  0  0  0  0  0
  147.2343  133.0149  151.0632 H   0  0  0  0  0  0  0  0  0  0  0  0
  146.4168  134.9617  152.4242 H   0  0  0  0  0  0  0  0  0  0  0  0
  145.2048  133.9188  153.1666 H   0  0  0  0  0  0  0  0  0  0  0  0
  145.1498  134.2459  151.4383 H   0  0  0  0  0  0  0  0  0  0  0  0
  148.4676  134.5222  152.7719 H   0  0  0  0  0  0  0  0  0  0  0  0
  150.1398  132.7873  154.3955 H   0  0  0  0  0  0  0  0  0  0  0  0
  150.3274  134.5009  154.1099 H   0  0  0  0  0  0  0  0  0  0  0  0
  147.0163  134.4480  155.1656 H   0  0  0  0  0  0  0  0  0  0  0  0
  146.2524  134.9482  157.4673 H   0  0  0  0  0  0  0  0  0  0  0  0
  147.1657  132.8832  160.0735 H   0  0  0  0  0  0  0  0  0  0  0  0
  148.6958  133.3448  160.7888 H   0  0  0  0  0  0  0  0  0  0  0  0
  145.9103  134.3155  161.6552 H   0  0  0  0  0  0  0  0  0  0  0  0
  146.9556  133.2228  162.5416 H   0  0  0  0  0  0  0  0  0  0  0  0
  146.5645  136.6345  161.4486 H   0  0  0  0  0  0  0  0  0  0  0  0
  148.0625  137.1557  162.1954 H   0  0  0  0  0  0  0  0  0  0  0  0
  149.4108  135.8713  160.5723 H   0  0  0  0  0  0  0  0  0  0  0  0
  148.2953  136.9162  159.7023 H   0  0  0  0  0  0  0  0  0  0  0  0
  150.9693  133.7770  156.7724 H   0  0  0  0  0  0  0  0  0  0  0  0
  1  2  1  0  0  0  0
  1 21  1  0  0  0  0
  1 22  1  0  0  0  0
  1 23  1  0  0  0  0
  2  3  1  0  0  0  0
  3  4  1  0  0  0  0
  3  5  1  0  0  0  0
  3 24  1  0  0  0  0
  4 25  1  0  0  0  0
  4 26  1  0  0  0  0
  4 27  1  0  0  0  0
  5  6  2  0  0  0  0
  5  7  1  0  0  0  0
  7  8  1  0  0  0  0
  7 28  1  0  0  0  0
  8  9  1  0  0  0  0
  8 29  1  0  0  0  0
  8 30  1  0  0  0  0
  9 20  1  0  0  0  0
  9 10  2  0  0  0  0
 10 11  1  0  0  0  0
 10 31  1  0  0  0  0
 11 12  2  0  0  0  0
 11 32  1  0  0  0  0
 12 13  1  0  0  0  0
 12 19  1  0  0  0  0
 13 18  1  0  0  0  0
 13 14  1  0  0  0  0
 14 15  1  0  0  0  0
 14 33  1  0  0  0  0
 14 34  1  0  0  0  0
 15 16  1  0  0  0  0
 15 35  1  0  0  0  0
 15 36  1  0  0  0  0
 16 17  1  0  0  0  0
 17 18  1  0  0  0  0
 17 37  1  0  0  0  0
 17 38  1  0  0  0  0
 18 39  1  0  0  0  0
 18 40  1  0  0  0  0
 19 20  2  0  0  0  0
 20 41  1  0  0  0  0
M  END
> <s_m_source_file>
AV-unprocessed.smi

> <i_m_source_file_index>
3003

> <i_lp_mmshare_version>
43012

> <i_f3d_flags>
0

> <s_epik_input>
W0NIM11TW0NASF0oW0NIM10pQyg9TylbTkhdW0NIMl1jMVtjSF1bY0hdYyhuW2NIXTEpTjJbQ0gyXVtDSDJdT1tDSDJdW0NIMl0y

> <s_epik_cmdline>
J2VwaWtfcHl0aG9uJywgJy1waCcsICc3LjAnLCAnLXRuJywgJzgnLCAnLW1hJywgJzIwMCcsICctbWV0YWxfYmluZGluZycsICctaW1hZScsICc8aW5maWxlLm1hZT4nLCAnLW9tYWUnLCAnPG91dGZpbGUubWFlPic=

> <r_lp_tautomer_probability>
1

> <r_epik_Ionization_Penalty>
0.00417642

> <r_epik_Ionization_Penalty_Charging>
0

> <r_epik_Ionization_Penalty_Neutral>
0.00417642

> <r_epik_State_Penalty>
0.00299889

> <r_epik_Charging_Adjusted_Penalty>
0.00299889

> <i_epik_Tot_Q>
0

> <i_epik_Tot_abs_Q>
0

> <r_epik_Metal_State_Penalty>
-0

> <b_epik_Metal_Only>
0

> <s_lp_Force_Field>
OPLS_2005

> <r_lp_Energy>
16.8537

> <b_lp_Chiralities_Consistent>
1

> <s_lp_Variant>
AV-unprocessed.smi:3003-2

> <Gold.Version>
5.8.1

> <Gold.Id.Protein>
6NUR|6NUR_protein|mol2

> <Gold.PLP.Fitness>
36.9163

> <Gold.PLP.PLP>
-31.2963

> <Gold.PLP.part.hbond>
-2.0000

> <Gold.PLP.part.metal>
0.0000

> <Gold.PLP.part.buried>
-5.1239

> <Gold.PLP.part.nonpolar>
-24.6175

> <Gold.PLP.part.repulsive>
0.0697

> <Gold.PLP.ligand.clash>
0.0000

> <Gold.PLP.ligand.torsion>
0.3750

> <Gold.PLP.Chemscore.Hbond>
2.0000

> <Gold.PLP.Chemscore.CHOScore>
0.0000

> <Gold.PLP.Chemscore.Metal>
0.0000

> <Gold.Chemscore.Hbonds>
donor molecule, donor type, donor heavy atom, donor atom, acceptor molecule, acceptor atom, score
      L1  H     7    28       P1  7948  0.90
      P1  H  6896  6907       L1    19  1.00

> <Gold.PLP.Chemscore.Internal.Correction>
0.3700

> <Gold.Rescore>
     Score         DG    S(hbond)    S(metal)    S(lipo)     H(rot)  DE(clash)    DE(int)     intcor
     13.74     -14.40       1.41        0.00      72.48       1.67       0.29       0.37       ----

> <Gold.Chemscore.Fitness>
13.7411

> <Gold.Chemscore.DG>
-14.4012

> <Gold.Chemscore.ZeroCoef>
-5.4800

> <Gold.Chemscore.Hbond>
1.4108

> <Gold.Chemscore.Metal>
0.0000

> <Gold.Chemscore.Lipo>
72.4774

> <Gold.Chemscore.Internal_Hbond>
0.0000

> <Gold.Chemscore.DEClash>
0.2948

> <Gold.Chemscore.DEInternal>
0.3653

> <Gold.Chemscore.Rot>
1.6682

> <Gold.Chemscore.Internal.Correction>
   9.000000E+99

> <Gold.Chemscore.Hbonds>
donor molecule, donor type, donor heavy atom, donor atom, acceptor molecule, acceptor atom, score
      L1  H     7    28       P1  7948  0.18
      P1  H  6896  6907       L1    19  0.77

> <Gold.Chemscore.Hbond.Weighted>
-4.7120

> <Gold.Chemscore.Metal.Weighted>
-0.0000

> <Gold.Chemscore.Lipo.Weighted>
-8.4799

> <Gold.Chemscore.Internal_Hbond.Weighted>
0.0000

> <Gold.Chemscore.DEClash.Weighted>
0.2948

> <Gold.Chemscore.DEInternal.Weighted>
0.3653

> <Gold.Chemscore.Rot.Weighted>
4.2707

> <Gold.Chemscore.Internal.Correction.Weighted>
   9.000000E+99

> <Gold.Protein.RotatedTorsions>
[ 6907 6896 6895 6894 ] final -114.82 input  -60.11 | X-H torsion
[ 7974 7965 7964 7962 ] final  -84.74 input  175.53 | X-H torsion
[ 8008 7997 7996 7995 ] final   98.61 input   59.86 | X-H torsion
[ 10167 10162 10161 10158 ] final  -59.92 input  -65.29 | X-H torsion
[ 10718 10713 10712 10709 ] final  126.15 input   66.30 | X-H torsion
[ 10763 10752 10751 10750 ] final  134.33 input  -60.55 | X-H torsion
[ 11005 11000 10999 10996 ] final  115.15 input  -57.11 | X-H torsion

> <Gold.Protein.ActiveResidues>
 VAL166  LYS551  ARG553  GLY616  TRP617  ASP618  TYR619  PRO620  LYS621  CYS622 
 ASP623  PHE694  ASN695  SER759  ASP760  ASP761  ALA762  ILE779  LEU786  VAL792 
 PHE793  MET794  SER795  GLU796  ALA797  LYS798  CYS799  TRP800  GLU811  SER814 

> <Gold.Protein.RotatedAtoms>
  150.7931  133.8747  159.3268 H   0  0  0  0  0  0  0  0  0  0  0  0  # atno 6907 bound_to 6896
  151.6579  135.0991  160.0183 H   0  0  0  0  0  0  0  0  0  0  0  0  # atno 6908 bound_to 6896
  152.4008  133.6776  159.6350 H   0  0  0  0  0  0  0  0  0  0  0  0  # atno 6909 bound_to 6896
  145.5026  140.9546  143.1751 H   0  0  0  0  0  0  0  0  0  0  0  0  # atno 7974 bound_to 7965
  156.1022  140.3241  155.7957 H   0  0  0  0  0  0  0  0  0  0  0  0  # atno 8008 bound_to 7997
  155.4817  140.0554  157.2983 H   0  0  0  0  0  0  0  0  0  0  0  0  # atno 8009 bound_to 7997
  154.4704  140.2008  156.0024 H   0  0  0  0  0  0  0  0  0  0  0  0  # atno 8010 bound_to 7997
  140.6104  143.2385  151.5722 H   0  0  0  0  0  0  0  0  0  0  0  0  # atno 10167 bound_to 10162
  157.5443  131.1096  150.8808 H   0  0  0  0  0  0  0  0  0  0  0  0  # atno 10718 bound_to 10713
  153.8218  135.3115  155.3411 H   0  0  0  0  0  0  0  0  0  0  0  0  # atno 10763 bound_to 10752
  154.8010  135.4727  154.0278 H   0  0  0  0  0  0  0  0  0  0  0  0  # atno 10764 bound_to 10752
  153.1689  135.6874  153.8726 H   0  0  0  0  0  0  0  0  0  0  0  0  # atno 10765 bound_to 10752
  139.9001  134.9579  156.7001 H   0  0  0  0  0  0  0  0  0  0  0  0  # atno 11005 bound_to 11000
  144.7771  139.6606  143.7170 LP  0  0  0  0  0  0  0  0  0  0  0  0  # atno 17320 bound_to 7965
  146.2216  139.5646  142.9614 LP  0  0  0  0  0  0  0  0  0  0  0  0  # atno 17321 bound_to 7965
  139.5357  144.2788  152.1246 LP  0  0  0  0  0  0  0  0  0  0  0  0  # atno 17342 bound_to 10162
  140.1986  144.4681  150.6443 LP  0  0  0  0  0  0  0  0  0  0  0  0  # atno 17343 bound_to 10162
  156.9351  130.5364  149.5279 LP  0  0  0  0  0  0  0  0  0  0  0  0  # atno 17370 bound_to 10713
  156.0522  130.5590  150.9015 LP  0  0  0  0  0  0  0  0  0  0  0  0  # atno 17371 bound_to 10713
  140.7157  133.9184  155.8113 LP  0  0  0  0  0  0  0  0  0  0  0  0  # atno 17394 bound_to 11000
  141.0266  134.0815  157.4061 LP  0  0  0  0  0  0  0  0  0  0  0  0  # atno 17395 bound_to 11000

$$$$
