AV-unprocessed.smi:266|AV-procd|sdf|2033|dock8
  -GOLD-   2262021243D 1   1.00000     0.00000
 Structure written by MMmdl.
 52 55  0  0  0  0  0  0  0  0  1 V2000
  145.7229  132.2110  149.0568 C   0  0  0  0  0  0  0  0  0  0  0  0
  145.5841  133.4434  149.9674 C   0  0  2  0  0  0  0  0  0  0  0  0
  146.7237  133.4469  150.8296 O   0  0  0  0  0  0  0  0  0  0  0  0
  146.3216  133.5532  152.1877 C   0  0  0  0  0  0  0  0  0  0  0  0
  144.9279  132.9458  152.2038 C   0  0  0  0  0  0  0  0  0  0  0  0
  144.3413  133.4591  150.8936 C   0  0  2  0  0  0  0  0  0  0  0  0
  143.3265  132.5679  150.4651 O   0  0  0  0  0  0  0  0  0  0  0  0
  143.7347  134.8856  150.9853 C   0  0  0  0  0  0  0  0  0  0  0  0
  144.6943  135.9235  151.3311 N   0  0  0  0  0  0  0  0  0  0  0  0
  145.6555  136.4602  150.5064 C   0  0  0  0  0  0  0  0  0  0  0  0
  146.4006  137.3819  151.0503 N   0  0  0  0  0  0  0  0  0  0  0  0
  145.9173  137.4991  152.3492 C   0  0  0  0  0  0  0  0  0  0  0  0
  146.2670  138.2971  153.4800 C   0  0  0  0  0  0  0  0  0  0  0  0
  147.3105  139.1728  153.5078 N   0  0  0  0  0  0  0  0  0  0  0  0
  147.2829  140.3069  152.5872 C   0  0  0  0  0  0  0  0  0  0  0  0
  148.0565  139.3434  154.7560 C   0  0  0  0  0  0  0  0  0  0  0  0
  149.4090  138.5988  154.7776 C   0  0  2  0  0  0  0  0  0  0  0  0
  150.0969  138.7132  156.1522 C   0  0  0  0  0  0  0  0  0  0  0  0
  151.5350  138.2019  156.0285 C   0  0  0  0  0  0  0  0  0  0  0  0
  152.0851  138.6972  154.3553 S   0  0  0  0  0  0  0  0  0  0  0  0
  152.8675  139.9395  154.4440 O   0  0  0  0  0  0  0  0  0  0  0  0
  152.6124  137.5177  153.6529 O   0  0  0  0  0  0  0  0  0  0  0  0
  150.4133  139.0955  153.7201 C   0  0  0  0  0  0  0  0  0  0  0  0
  145.5085  138.1441  154.5995 N   0  0  0  0  0  0  0  0  0  0  0  0
  144.5020  137.2668  154.6284 C   0  0  0  0  0  0  0  0  0  0  0  0
  144.0841  136.4475  153.6639 N   0  0  0  0  0  0  0  0  0  0  0  0
  144.8264  136.5998  152.5314 C   0  0  0  0  0  0  0  0  0  0  0  0
  144.9053  132.1540  148.3377 H   0  0  0  0  0  0  0  0  0  0  0  0
  145.7295  131.2869  149.6356 H   0  0  0  0  0  0  0  0  0  0  0  0
  146.6530  132.2520  148.4895 H   0  0  0  0  0  0  0  0  0  0  0  0
  145.6102  134.3391  149.3453 H   0  0  0  0  0  0  0  0  0  0  0  0
  147.0143  133.0357  152.8514 H   0  0  0  0  0  0  0  0  0  0  0  0
  146.2924  134.6045  152.4767 H   0  0  0  0  0  0  0  0  0  0  0  0
  145.0177  131.8582  152.1789 H   0  0  0  0  0  0  0  0  0  0  0  0
  144.3562  133.2024  153.0945 H   0  0  0  0  0  0  0  0  0  0  0  0
  142.5941  133.0749  150.1497 H   0  0  0  0  0  0  0  0  0  0  0  0
  143.2725  135.1626  150.0370 H   0  0  0  0  0  0  0  0  0  0  0  0
  142.9316  134.9041  151.7236 H   0  0  0  0  0  0  0  0  0  0  0  0
  145.7929  136.1380  149.4843 H   0  0  0  0  0  0  0  0  0  0  0  0
  147.0938  139.9732  151.5662 H   0  0  0  0  0  0  0  0  0  0  0  0
  148.2385  140.8314  152.5905 H   0  0  0  0  0  0  0  0  0  0  0  0
  146.5065  141.0188  152.8701 H   0  0  0  0  0  0  0  0  0  0  0  0
  148.1974  140.3920  155.0058 H   0  0  0  0  0  0  0  0  0  0  0  0
  147.4315  138.9510  155.5590 H   0  0  0  0  0  0  0  0  0  0  0  0
  149.2334  137.5370  154.5995 H   0  0  0  0  0  0  0  0  0  0  0  0
  150.1211  139.7608  156.4550 H   0  0  0  0  0  0  0  0  0  0  0  0
  149.5492  138.1720  156.9243 H   0  0  0  0  0  0  0  0  0  0  0  0
  152.2036  138.6123  156.7853 H   0  0  0  0  0  0  0  0  0  0  0  0
  151.5646  137.1136  156.0857 H   0  0  0  0  0  0  0  0  0  0  0  0
  150.2673  138.6326  152.7441 H   0  0  0  0  0  0  0  0  0  0  0  0
  150.3588  140.1776  153.6024 H   0  0  0  0  0  0  0  0  0  0  0  0
  143.9581  137.2088  155.5599 H   0  0  0  0  0  0  0  0  0  0  0  0
  1  2  1  0  0  0  0
  1 28  1  0  0  0  0
  1 29  1  0  0  0  0
  1 30  1  0  0  0  0
  2  6  1  0  0  0  0
  2  3  1  0  0  0  0
  2 31  1  0  0  0  0
  3  4  1  0  0  0  0
  4  5  1  0  0  0  0
  4 32  1  0  0  0  0
  4 33  1  0  0  0  0
  5  6  1  0  0  0  0
  5 34  1  0  0  0  0
  5 35  1  0  0  0  0
  6  7  1  0  0  0  0
  6  8  1  0  0  0  0
  7 36  1  0  0  0  0
  8  9  1  0  0  0  0
  8 37  1  0  0  0  0
  8 38  1  0  0  0  0
  9 27  1  0  0  0  0
  9 10  1  0  0  0  0
 10 11  2  0  0  0  0
 10 39  1  0  0  0  0
 11 12  1  0  0  0  0
 12 27  2  0  0  0  0
 12 13  1  0  0  0  0
 13 14  1  0  0  0  0
 13 24  2  0  0  0  0
 14 15  1  0  0  0  0
 14 16  1  0  0  0  0
 15 40  1  0  0  0  0
 15 41  1  0  0  0  0
 15 42  1  0  0  0  0
 16 17  1  0  0  0  0
 16 43  1  0  0  0  0
 16 44  1  0  0  0  0
 17 23  1  0  0  0  0
 17 18  1  0  0  0  0
 17 45  1  0  0  0  0
 18 19  1  0  0  0  0
 18 46  1  0  0  0  0
 18 47  1  0  0  0  0
 19 20  1  0  0  0  0
 19 48  1  0  0  0  0
 19 49  1  0  0  0  0
 20 21  2  0  0  0  0
 20 22  2  0  0  0  0
 20 23  1  0  0  0  0
 23 50  1  0  0  0  0
 23 51  1  0  0  0  0
 24 25  1  0  0  0  0
 25 26  2  0  0  0  0
 25 52  1  0  0  0  0
 26 27  1  0  0  0  0
M  END
> <s_m_source_file>
AV-unprocessed.smi

> <i_m_source_file_index>
266

> <i_lp_mmshare_version>
43012

> <i_f3d_flags>
0

> <s_epik_input>
W0NIMl0xW0NIMl1PW0NAQEhdKFtDSDNdKVtDQEBdMShbT0hdKVtDSDJdbihbY0hdbjIpYyhjMjMpbltjSF1uYzNOKFtDSDNdKVtDSDJdW0NAQEhdKFtDSDJdNClbQ0gyXVtDSDJdUzQoPU8pPU8=

> <s_epik_cmdline>
J2VwaWtfcHl0aG9uJywgJy1waCcsICc3LjAnLCAnLXRuJywgJzgnLCAnLW1hJywgJzIwMCcsICctbWV0YWxfYmluZGluZycsICctaW1hZScsICc8aW5maWxlLm1hZT4nLCAnLW9tYWUnLCAnPG91dGZpbGUubWFlPic=

> <r_lp_tautomer_probability>
1

> <r_epik_Ionization_Penalty>
0.00155497

> <r_epik_Ionization_Penalty_Charging>
0

> <r_epik_Ionization_Penalty_Neutral>
0.00155497

> <r_epik_State_Penalty>
-0

> <r_epik_Charging_Adjusted_Penalty>
0

> <i_epik_Tot_Q>
0

> <i_epik_Tot_abs_Q>
0

> <r_epik_Metal_State_Penalty>
-0

> <b_epik_Metal_Only>
0

> <s_lp_Force_Field>
OPLS_2005

> <r_lp_Energy>
29.9122

> <b_lp_Chiralities_Consistent>
1

> <s_lp_Variant>
AV-unprocessed.smi:266-3

> <Gold.Version>
5.8.1

> <Gold.Id.Protein>
6NUR|6NUR_protein|mol2

> <Gold.PLP.Fitness>
43.9074

> <Gold.PLP.PLP>
-32.1579

> <Gold.PLP.part.hbond>
-4.6816

> <Gold.PLP.part.metal>
0.0000

> <Gold.PLP.part.buried>
2.6282

> <Gold.PLP.part.nonpolar>
-32.6397

> <Gold.PLP.part.repulsive>
3.4122

> <Gold.PLP.ligand.clash>
0.0000

> <Gold.PLP.ligand.torsion>
1.2318

> <Gold.PLP.Chemscore.Hbond>
3.5549

> <Gold.PLP.Chemscore.CHOScore>
1.0000

> <Gold.PLP.Chemscore.Metal>
0.0000

> <Gold.Chemscore.Hbonds>
donor molecule, donor type, donor heavy atom, donor atom, acceptor molecule, acceptor atom, score
      L1  H     7    36       P1 10186  0.67
      P1  H  7954  7966       L1    11  0.68
      P1  H  7989  7998       L1    21  0.21
      P1  H  7997  8010       L1    21  0.39
      P1  H 10752 10763       L1    22  0.64
      L1  C    10    39       P1  7921  1.00

> <Gold.PLP.Chemscore.Internal.Correction>
0.5483

> <Gold.Rescore>
     Score         DG    S(hbond)    S(metal)    S(lipo)     H(rot)  DE(clash)    DE(int)     intcor
     14.11     -20.05       3.35        0.00      82.44       2.45       3.61       2.33       ----

> <Gold.Chemscore.Fitness>
14.1120

> <Gold.Chemscore.DG>
-20.0502

> <Gold.Chemscore.ZeroCoef>
-5.4800

> <Gold.Chemscore.Hbond>
3.3502

> <Gold.Chemscore.Metal>
0.0000

> <Gold.Chemscore.Lipo>
82.4353

> <Gold.Chemscore.Internal_Hbond>
0.0000

> <Gold.Chemscore.DEClash>
3.6055

> <Gold.Chemscore.DEInternal>
2.3327

> <Gold.Chemscore.Rot>
2.4471

> <Gold.Chemscore.Internal.Correction>
   9.000000E+99

> <Gold.Chemscore.Hbonds>
donor molecule, donor type, donor heavy atom, donor atom, acceptor molecule, acceptor atom, score
      L1  H     7    36       P1 10186  0.67
      P1  H  7954  7966       L1    11  0.57
      P1  H  7989  7998       L1    21  0.02
      P1  H  7997  8010       L1    21  0.37
      P1  H 10752 10763       L1    22  0.64

> <Gold.Chemscore.Hbond.Weighted>
-11.1898

> <Gold.Chemscore.Metal.Weighted>
-0.0000

> <Gold.Chemscore.Lipo.Weighted>
-9.6449

> <Gold.Chemscore.Internal_Hbond.Weighted>
0.0000

> <Gold.Chemscore.DEClash.Weighted>
3.6055

> <Gold.Chemscore.DEInternal.Weighted>
2.3327

> <Gold.Chemscore.Rot.Weighted>
6.2645

> <Gold.Chemscore.Internal.Correction.Weighted>
   9.000000E+99

> <Gold.Protein.RotatedTorsions>
[ 6907 6896 6895 6894 ] final  -35.34 input  -60.11 | X-H torsion
[ 7974 7965 7964 7962 ] final   31.27 input  175.53 | X-H torsion
[ 8008 7997 7996 7995 ] final   88.39 input   59.86 | X-H torsion
[ 10167 10162 10161 10158 ] final  117.56 input  -65.29 | X-H torsion
[ 10718 10713 10712 10709 ] final  -19.03 input   66.30 | X-H torsion
[ 10763 10752 10751 10750 ] final   33.70 input  -60.55 | X-H torsion
[ 11005 11000 10999 10996 ] final -160.91 input  -57.11 | X-H torsion

> <Gold.Protein.ActiveResidues>
 VAL166  LYS551  ARG553  GLY616  TRP617  ASP618  TYR619  PRO620  LYS621  CYS622 
 ASP623  PHE694  ASN695  SER759  ASP760  ASP761  ALA762  ILE779  LEU786  VAL792 
 PHE793  MET794  SER795  GLU796  ALA797  LYS798  CYS799  TRP800  GLU811  SER814 

> <Gold.Protein.RotatedAtoms>
  151.0410  134.9607  159.8161 H   0  0  0  0  0  0  0  0  0  0  0  0  # atno 6907 bound_to 6896
  152.5364  134.2658  159.8962 H   0  0  0  0  0  0  0  0  0  0  0  0  # atno 6908 bound_to 6896
  151.2670  133.4231  159.2653 H   0  0  0  0  0  0  0  0  0  0  0  0  # atno 6909 bound_to 6896
  146.1560  139.6678  142.9066 H   0  0  0  0  0  0  0  0  0  0  0  0  # atno 7974 bound_to 7965
  155.9871  140.3372  155.6718 H   0  0  0  0  0  0  0  0  0  0  0  0  # atno 8008 bound_to 7997
  155.6470  140.0701  157.2617 H   0  0  0  0  0  0  0  0  0  0  0  0  # atno 8009 bound_to 7997
  154.4208  140.1732  156.1622 H   0  0  0  0  0  0  0  0  0  0  0  0  # atno 8010 bound_to 7997
  139.6170  144.7094  151.2717 H   0  0  0  0  0  0  0  0  0  0  0  0  # atno 10167 bound_to 10162
  156.5513  130.4702  149.6450 H   0  0  0  0  0  0  0  0  0  0  0  0  # atno 10718 bound_to 10713
  153.0199  135.6380  154.1552 H   0  0  0  0  0  0  0  0  0  0  0  0  # atno 10763 bound_to 10752
  154.1288  135.2842  155.3192 H   0  0  0  0  0  0  0  0  0  0  0  0  # atno 10764 bound_to 10752
  154.6210  135.5525  153.7637 H   0  0  0  0  0  0  0  0  0  0  0  0  # atno 10765 bound_to 10752
  140.6263  134.4698  157.5227 H   0  0  0  0  0  0  0  0  0  0  0  0  # atno 11005 bound_to 11000
  145.4707  141.0436  143.2700 LP  0  0  0  0  0  0  0  0  0  0  0  0  # atno 17320 bound_to 7965
  144.7964  139.6226  143.7091 LP  0  0  0  0  0  0  0  0  0  0  0  0  # atno 17321 bound_to 7965
  140.7357  143.6728  150.8067 LP  0  0  0  0  0  0  0  0  0  0  0  0  # atno 17342 bound_to 10162
  140.0332  143.5422  152.2751 LP  0  0  0  0  0  0  0  0  0  0  0  0  # atno 17343 bound_to 10162
  156.2882  130.7109  151.1951 LP  0  0  0  0  0  0  0  0  0  0  0  0  # atno 17370 bound_to 10713
  157.7387  131.0538  150.5279 LP  0  0  0  0  0  0  0  0  0  0  0  0  # atno 17371 bound_to 10713
  139.9134  134.8298  156.1450 LP  0  0  0  0  0  0  0  0  0  0  0  0  # atno 17394 bound_to 11000
  141.0707  133.6798  156.2135 LP  0  0  0  0  0  0  0  0  0  0  0  0  # atno 17395 bound_to 11000

$$$$
