AV-unprocessed.smi:1157|AV-procd|sdf|4906|dock4
  -GOLD-   22720 3483D 1   1.00000     0.00000
 Structure written by MMmdl.
 54 56  0  0  0  0  0  0  0  0  1 V2000
  144.9985  136.3175  154.3676 C   0  0  0  0  0  0  0  0  0  0  0  0
  144.7705  136.1004  152.8496 C   0  0  0  0  0  0  0  0  0  0  0  0
  143.2418  136.1197  152.6079 C   0  0  0  0  0  0  0  0  0  0  0  0
  145.3655  137.3492  152.1384 C   0  0  0  0  0  0  0  0  0  0  0  0
  146.7648  137.5691  152.4903 N   0  0  0  0  0  0  0  0  0  0  0  0
  147.1878  138.4246  153.4287 C   0  0  0  0  0  0  0  0  0  0  0  0
  146.4280  139.1165  154.1062 O   0  0  0  0  0  0  0  0  0  0  0  0
  148.5292  138.4347  153.5072 N   0  0  0  0  0  0  0  0  0  0  0  0
  149.3558  139.1968  154.3756 C   0  0  0  0  0  0  0  0  0  0  0  0
  150.7463  138.9930  154.5319 C   0  0  0  0  0  0  0  0  0  0  0  0
  151.4630  139.8261  155.4122 C   0  0  0  0  0  0  0  0  0  0  0  0
  150.7750  140.8453  156.1123 C   0  0  0  0  0  0  0  0  0  0  0  0
  151.4566  141.6999  157.0013 N   0  0  0  0  0  0  0  0  0  0  0  0
  151.0072  143.0606  157.2519 C   0  0  0  0  0  0  0  0  0  0  0  0
  151.9207  143.5700  158.3655 C   0  0  0  0  0  0  0  0  0  0  0  0
  152.2128  142.3085  159.1779 C   0  0  0  0  0  0  0  0  0  0  0  0
  152.2063  141.1822  158.1378 C   0  0  0  0  0  0  0  0  0  0  0  0
  149.4470  141.0518  155.9445 N   0  0  0  0  0  0  0  0  0  0  0  0
  148.7648  140.2515  155.0989 C   0  0  0  0  0  0  0  0  0  0  0  0
  145.4197  134.8422  152.3848 N   0  0  0  0  0  0  0  0  0  0  0  0
  145.2621  134.5598  150.9530 C   0  0  0  0  0  0  0  0  0  0  0  0
  146.0586  133.3183  150.5175 C   0  0  0  0  0  0  0  0  0  0  0  0
  145.6576  132.1960  151.2938 O   0  0  0  0  0  0  0  0  0  0  0  0
  145.8488  132.4045  152.6878 C   0  0  0  0  0  0  0  0  0  0  0  0
  145.0530  133.6400  153.1423 C   0  0  0  0  0  0  0  0  0  0  0  0
  144.6767  137.3110  154.6824 H   0  0  0  0  0  0  0  0  0  0  0  0
  146.0507  136.2172  154.6362 H   0  0  0  0  0  0  0  0  0  0  0  0
  144.4336  135.6110  154.9757 H   0  0  0  0  0  0  0  0  0  0  0  0
  142.8012  137.0497  152.9692 H   0  0  0  0  0  0  0  0  0  0  0  0
  142.7315  135.3093  153.1278 H   0  0  0  0  0  0  0  0  0  0  0  0
  142.9909  136.0452  151.5499 H   0  0  0  0  0  0  0  0  0  0  0  0
  145.2805  137.2667  151.0544 H   0  0  0  0  0  0  0  0  0  0  0  0
  144.7916  138.2395  152.4031 H   0  0  0  0  0  0  0  0  0  0  0  0
  147.4521  137.0419  151.9714 H   0  0  0  0  0  0  0  0  0  0  0  0
  149.0183  137.8765  152.8227 H   0  0  0  0  0  0  0  0  0  0  0  0
  151.2787  138.2298  153.9861 H   0  0  0  0  0  0  0  0  0  0  0  0
  152.5263  139.6784  155.5287 H   0  0  0  0  0  0  0  0  0  0  0  0
  151.0777  143.6802  156.3572 H   0  0  0  0  0  0  0  0  0  0  0  0
  149.9677  143.0463  157.5829 H   0  0  0  0  0  0  0  0  0  0  0  0
  152.8471  143.9547  157.9366 H   0  0  0  0  0  0  0  0  0  0  0  0
  151.4659  144.3649  158.9570 H   0  0  0  0  0  0  0  0  0  0  0  0
  153.1498  142.3667  159.7323 H   0  0  0  0  0  0  0  0  0  0  0  0
  151.4086  142.1457  159.8966 H   0  0  0  0  0  0  0  0  0  0  0  0
  151.7595  140.2762  158.5489 H   0  0  0  0  0  0  0  0  0  0  0  0
  153.2209  140.9490  157.8133 H   0  0  0  0  0  0  0  0  0  0  0  0
  147.7089  140.4588  155.0026 H   0  0  0  0  0  0  0  0  0  0  0  0
  144.2103  134.4033  150.7133 H   0  0  0  0  0  0  0  0  0  0  0  0
  145.6026  135.3995  150.3500 H   0  0  0  0  0  0  0  0  0  0  0  0
  145.8798  133.1043  149.4637 H   0  0  0  0  0  0  0  0  0  0  0  0
  147.1304  133.4872  150.6329 H   0  0  0  0  0  0  0  0  0  0  0  0
  145.5150  131.5191  153.2290 H   0  0  0  0  0  0  0  0  0  0  0  0
  146.9115  132.5293  152.9020 H   0  0  0  0  0  0  0  0  0  0  0  0
  145.2388  133.7785  154.2059 H   0  0  0  0  0  0  0  0  0  0  0  0
  143.9887  133.4328  153.0300 H   0  0  0  0  0  0  0  0  0  0  0  0
  1  2  1  0  0  0  0
  1 26  1  0  0  0  0
  1 27  1  0  0  0  0
  1 28  1  0  0  0  0
  2  3  1  0  0  0  0
  2  4  1  0  0  0  0
  2 20  1  0  0  0  0
  3 29  1  0  0  0  0
  3 30  1  0  0  0  0
  3 31  1  0  0  0  0
  4  5  1  0  0  0  0
  4 32  1  0  0  0  0
  4 33  1  0  0  0  0
  5  6  1  0  0  0  0
  5 34  1  0  0  0  0
  6  7  2  0  0  0  0
  6  8  1  0  0  0  0
  8  9  1  0  0  0  0
  8 35  1  0  0  0  0
  9 19  1  0  0  0  0
  9 10  2  0  0  0  0
 10 11  1  0  0  0  0
 10 36  1  0  0  0  0
 11 12  2  0  0  0  0
 11 37  1  0  0  0  0
 12 13  1  0  0  0  0
 12 18  1  0  0  0  0
 13 17  1  0  0  0  0
 13 14  1  0  0  0  0
 14 15  1  0  0  0  0
 14 38  1  0  0  0  0
 14 39  1  0  0  0  0
 15 16  1  0  0  0  0
 15 40  1  0  0  0  0
 15 41  1  0  0  0  0
 16 17  1  0  0  0  0
 16 42  1  0  0  0  0
 16 43  1  0  0  0  0
 17 44  1  0  0  0  0
 17 45  1  0  0  0  0
 18 19  2  0  0  0  0
 19 46  1  0  0  0  0
 20 25  1  0  0  0  0
 20 21  1  0  0  0  0
 21 22  1  0  0  0  0
 21 47  1  0  0  0  0
 21 48  1  0  0  0  0
 22 23  1  0  0  0  0
 22 49  1  0  0  0  0
 22 50  1  0  0  0  0
 23 24  1  0  0  0  0
 24 25  1  0  0  0  0
 24 51  1  0  0  0  0
 24 52  1  0  0  0  0
 25 53  1  0  0  0  0
 25 54  1  0  0  0  0
M  END
> <s_m_source_file>
AV-unprocessed.smi

> <i_m_source_file_index>
1157

> <i_lp_mmshare_version>
43012

> <i_f3d_flags>
0

> <s_epik_input>
W0NIMl0xW0NIMl1PW0NIMl1bQ0gyXU4xQyhbQ0gzXSkoW0NIM10pW0NIMl1bTkhdQyg9TylbTkhdYzJbY0hdW2NIXWMobltjSF0yKU4zW0NIMl1bQ0gyXVtDSDJdW0NIMl0z

> <s_epik_cmdline>
J2VwaWtfcHl0aG9uJywgJy1waCcsICc3LjAnLCAnLXRuJywgJzgnLCAnLW1hJywgJzIwMCcsICctbWV0YWxfYmluZGluZycsICctaW1hZScsICc8aW5maWxlLm1hZT4nLCAnLW9tYWUnLCAnPG91dGZpbGUubWFlPic=

> <r_lp_tautomer_probability>
1

> <r_epik_Ionization_Penalty>
0.366523

> <r_epik_Ionization_Penalty_Charging>
0

> <r_epik_Ionization_Penalty_Neutral>
0.366523

> <r_epik_State_Penalty>
0.351681

> <r_epik_Charging_Adjusted_Penalty>
0.351681

> <i_epik_Tot_Q>
0

> <i_epik_Tot_abs_Q>
0

> <r_epik_Metal_State_Penalty>
0.334658

> <b_epik_Metal_Only>
0

> <s_lp_Force_Field>
OPLS_2005

> <r_lp_Energy>
67.3279

> <b_lp_Chiralities_Consistent>
1

> <s_lp_Variant>
AV-unprocessed.smi:1157-1

> <Gold.Version>
5.8.1

> <Gold.Id.Protein>
6NUR|6NUR_protein|mol2

> <Gold.PLP.Fitness>
45.0309

> <Gold.PLP.PLP>
-41.3794

> <Gold.PLP.part.hbond>
-2.9147

> <Gold.PLP.part.metal>
0.0000

> <Gold.PLP.part.buried>
-2.9168

> <Gold.PLP.part.nonpolar>
-35.3740

> <Gold.PLP.part.repulsive>
0.5711

> <Gold.PLP.ligand.clash>
0.0000

> <Gold.PLP.ligand.torsion>
0.9738

> <Gold.PLP.Chemscore.Hbond>
1.7800

> <Gold.PLP.Chemscore.CHOScore>
0.0000

> <Gold.PLP.Chemscore.Metal>
0.0000

> <Gold.Chemscore.Hbonds>
donor molecule, donor type, donor heavy atom, donor atom, acceptor molecule, acceptor atom, score
      L1  H     5    34       P1  7948  1.00
      L1  H     8    35       P1  7948  0.90

> <Gold.PLP.Chemscore.Internal.Correction>
0.2591

> <Gold.Rescore>
     Score         DG    S(hbond)    S(metal)    S(lipo)     H(rot)  DE(clash)    DE(int)     intcor
     16.54     -19.00       1.63        0.00      99.35       1.38       0.07       2.39       ----

> <Gold.Chemscore.Fitness>
16.5357

> <Gold.Chemscore.DG>
-18.9973

> <Gold.Chemscore.ZeroCoef>
-5.4800

> <Gold.Chemscore.Hbond>
1.6255

> <Gold.Chemscore.Metal>
0.0000

> <Gold.Chemscore.Lipo>
99.3497

> <Gold.Chemscore.Internal_Hbond>
0.0000

> <Gold.Chemscore.DEClash>
0.0739

> <Gold.Chemscore.DEInternal>
2.3878

> <Gold.Chemscore.Rot>
1.3812

> <Gold.Chemscore.Internal.Correction>
   9.000000E+99

> <Gold.Chemscore.Hbonds>
donor molecule, donor type, donor heavy atom, donor atom, acceptor molecule, acceptor atom, score
      L1  H     5    34       P1  7948  0.97
      L1  H     8    35       P1  7948  0.88

> <Gold.Chemscore.Hbond.Weighted>
-5.4292

> <Gold.Chemscore.Metal.Weighted>
-0.0000

> <Gold.Chemscore.Lipo.Weighted>
-11.6239

> <Gold.Chemscore.Internal_Hbond.Weighted>
0.0000

> <Gold.Chemscore.DEClash.Weighted>
0.0739

> <Gold.Chemscore.DEInternal.Weighted>
2.3878

> <Gold.Chemscore.Rot.Weighted>
3.5358

> <Gold.Chemscore.Internal.Correction.Weighted>
   9.000000E+99

> <Gold.Protein.RotatedTorsions>
[ 6907 6896 6895 6894 ] final   21.29 input  -60.11 | X-H torsion
[ 7974 7965 7964 7962 ] final   60.59 input  175.53 | X-H torsion
[ 8008 7997 7996 7995 ] final -134.15 input   59.86 | X-H torsion
[ 10167 10162 10161 10158 ] final -137.66 input  -65.29 | X-H torsion
[ 10718 10713 10712 10709 ] final   -6.62 input   66.30 | X-H torsion
[ 10763 10752 10751 10750 ] final -166.46 input  -60.55 | X-H torsion
[ 11005 11000 10999 10996 ] final   34.55 input  -57.11 | X-H torsion

> <Gold.Protein.ActiveResidues>
 VAL166  LYS551  ARG553  GLY616  TRP617  ASP618  TYR619  PRO620  LYS621  CYS622 
 ASP623  PHE694  ASN695  SER759  ASP760  ASP761  ALA762  ILE779  LEU786  VAL792 
 PHE793  MET794  SER795  GLU796  ALA797  LYS798  CYS799  TRP800  GLU811  SER814 

> <Gold.Protein.RotatedAtoms>
  151.9095  135.0345  160.0512 H   0  0  0  0  0  0  0  0  0  0  0  0  # atno 6907 bound_to 6896
  152.2291  133.5039  159.5214 H   0  0  0  0  0  0  0  0  0  0  0  0  # atno 6908 bound_to 6896
  150.7020  134.1157  159.4059 H   0  0  0  0  0  0  0  0  0  0  0  0  # atno 6909 bound_to 6896
  145.8943  139.3534  143.0630 H   0  0  0  0  0  0  0  0  0  0  0  0  # atno 7974 bound_to 7965
  155.3573  140.0480  157.3046 H   0  0  0  0  0  0  0  0  0  0  0  0  # atno 8008 bound_to 7997
  154.5196  140.2220  155.8964 H   0  0  0  0  0  0  0  0  0  0  0  0  # atno 8009 bound_to 7997
  156.1675  140.3103  155.8920 H   0  0  0  0  0  0  0  0  0  0  0  0  # atno 8010 bound_to 7997
  139.8555  143.7143  152.2654 H   0  0  0  0  0  0  0  0  0  0  0  0  # atno 10167 bound_to 10162
  156.7293  130.5175  149.5849 H   0  0  0  0  0  0  0  0  0  0  0  0  # atno 10718 bound_to 10713
  154.6831  135.2958  154.9585 H   0  0  0  0  0  0  0  0  0  0  0  0  # atno 10763 bound_to 10752
  154.0573  135.6636  153.4811 H   0  0  0  0  0  0  0  0  0  0  0  0  # atno 10764 bound_to 10752
  153.0560  135.5144  154.7884 H   0  0  0  0  0  0  0  0  0  0  0  0  # atno 10765 bound_to 10752
  140.2517  134.3296  155.7888 H   0  0  0  0  0  0  0  0  0  0  0  0  # atno 11005 bound_to 11000
  145.8870  140.9327  143.0572 LP  0  0  0  0  0  0  0  0  0  0  0  0  # atno 17320 bound_to 7965
  144.6732  140.0855  143.7467 LP  0  0  0  0  0  0  0  0  0  0  0  0  # atno 17321 bound_to 7965
  139.7424  144.7556  151.0632 LP  0  0  0  0  0  0  0  0  0  0  0  0  # atno 17342 bound_to 10162
  140.7782  143.4957  150.9836 LP  0  0  0  0  0  0  0  0  0  0  0  0  # atno 17343 bound_to 10162
  156.1540  130.6329  151.0633 LP  0  0  0  0  0  0  0  0  0  0  0  0  # atno 17370 bound_to 10713
  157.6865  131.0823  150.7227 LP  0  0  0  0  0  0  0  0  0  0  0  0  # atno 17371 bound_to 10713
  141.2200  133.7357  156.9047 LP  0  0  0  0  0  0  0  0  0  0  0  0  # atno 17394 bound_to 11000
  140.1552  134.9203  157.2644 LP  0  0  0  0  0  0  0  0  0  0  0  0  # atno 17395 bound_to 11000

$$$$
