AV-unprocessed.smi:240|AV-procd|sdf|1838|dock3
  -GOLD-   2262020443D 1   1.00000     0.00000
 Structure written by MMmdl.
 55 59  0  0  0  0  0  0  0  0  1 V2000
  149.6979  140.8188  153.4216 O   0  0  0  0  0  0  0  0  0  0  0  0
  148.7698  140.1703  154.2719 C   0  0  2  0  0  0  0  0  0  0  0  0
  147.3586  140.4094  153.7241 C   0  0  0  0  0  0  0  0  0  0  0  0
  146.8506  141.6889  154.3989 C   0  0  0  0  0  0  0  0  0  0  0  0
  147.9070  142.0702  155.4425 C   0  0  0  0  0  0  0  0  0  0  0  0
  148.7552  140.8070  155.6800 C   0  0  2  0  0  0  0  0  0  0  0  0
  150.1350  141.0504  156.3814 C   0  0  1  0  0  0  0  0  0  0  0  0
  150.0022  142.1292  157.4892 C   0  0  0  0  0  0  0  0  0  0  0  0
  151.2368  142.3335  158.1653 O   0  0  0  0  0  0  0  0  0  0  0  0
  151.6766  141.1566  158.8245 C   0  0  0  0  0  0  0  0  0  0  0  0
  151.9189  140.0740  157.7685 C   0  0  0  0  0  0  0  0  0  0  0  0
  150.7041  139.8376  156.9943 N   0  0  0  0  0  0  0  0  0  0  0  0
  150.8580  138.7546  156.2031 C   0  0  0  0  0  0  0  0  0  0  0  0
  151.5187  138.9341  155.0333 N   0  0  0  0  0  0  0  0  0  0  0  0
  151.7126  137.8980  154.2117 C   0  0  0  0  0  0  0  0  0  0  0  0
  151.3315  136.6279  154.3651 N   0  0  0  0  0  0  0  0  0  0  0  0
  150.6513  136.4493  155.5341 C   0  0  0  0  0  0  0  0  0  0  0  0
  150.3713  137.4513  156.5047 C   0  0  0  0  0  0  0  0  0  0  0  0
  149.6712  136.8990  157.5700 N   0  0  0  0  0  0  0  0  0  0  0  0
  149.5481  135.6402  157.2491 C   0  0  0  0  0  0  0  0  0  0  0  0
  150.0956  135.2852  156.0364 N   0  0  0  0  0  0  0  0  0  0  0  0
  150.1037  133.9587  155.4373 C   0  0  0  0  0  0  0  0  0  0  0  0
  148.8652  133.6482  154.5572 C   0  0  2  0  0  0  0  0  0  0  0  0
  148.3129  134.8619  154.0818 O   0  0  0  0  0  0  0  0  0  0  0  0
  147.7713  132.8474  155.2688 C   0  0  0  0  0  0  0  0  0  0  0  0
  148.0071  131.4271  154.7760 C   0  0  0  0  0  0  0  0  0  0  0  0
  148.3515  131.6333  153.4182 O   0  0  0  0  0  0  0  0  0  0  0  0
  149.2334  132.7474  153.3603 C   0  0  0  0  0  0  0  0  0  0  0  0
  149.9744  140.2077  152.7553 H   0  0  0  0  0  0  0  0  0  0  0  0
  148.9889  139.1041  154.2863 H   0  0  0  0  0  0  0  0  0  0  0  0
  147.3319  140.4708  152.6353 H   0  0  0  0  0  0  0  0  0  0  0  0
  146.7152  139.5770  154.0117 H   0  0  0  0  0  0  0  0  0  0  0  0
  146.7105  142.4943  153.6773 H   0  0  0  0  0  0  0  0  0  0  0  0
  145.8864  141.5044  154.8740 H   0  0  0  0  0  0  0  0  0  0  0  0
  148.5346  142.8669  155.0402 H   0  0  0  0  0  0  0  0  0  0  0  0
  147.4475  142.4442  156.3579 H   0  0  0  0  0  0  0  0  0  0  0  0
  148.1653  140.1571  156.3292 H   0  0  0  0  0  0  0  0  0  0  0  0
  150.8480  141.4300  155.6490 H   0  0  0  0  0  0  0  0  0  0  0  0
  149.7143  143.0904  157.0646 H   0  0  0  0  0  0  0  0  0  0  0  0
  149.2286  141.8557  158.2091 H   0  0  0  0  0  0  0  0  0  0  0  0
  152.5989  141.3718  159.3639 H   0  0  0  0  0  0  0  0  0  0  0  0
  150.9398  140.8321  159.5613 H   0  0  0  0  0  0  0  0  0  0  0  0
  152.7275  140.3864  157.1068 H   0  0  0  0  0  0  0  0  0  0  0  0
  152.2389  139.1515  158.2557 H   0  0  0  0  0  0  0  0  0  0  0  0
  152.2522  138.1172  153.3022 H   0  0  0  0  0  0  0  0  0  0  0  0
  149.0465  134.9314  157.8919 H   0  0  0  0  0  0  0  0  0  0  0  0
  151.0153  133.8606  154.8461 H   0  0  0  0  0  0  0  0  0  0  0  0
  150.1842  133.2263  156.2416 H   0  0  0  0  0  0  0  0  0  0  0  0
  148.6861  135.0493  153.2340 H   0  0  0  0  0  0  0  0  0  0  0  0
  147.7896  132.9196  156.3548 H   0  0  0  0  0  0  0  0  0  0  0  0
  146.7811  133.1687  154.9408 H   0  0  0  0  0  0  0  0  0  0  0  0
  148.8387  130.9588  155.3052 H   0  0  0  0  0  0  0  0  0  0  0  0
  147.1269  130.7919  154.8779 H   0  0  0  0  0  0  0  0  0  0  0  0
  149.1474  133.2510  152.3965 H   0  0  0  0  0  0  0  0  0  0  0  0
  150.2565  132.3780  153.4436 H   0  0  0  0  0  0  0  0  0  0  0  0
  1  2  1  0  0  0  0
  1 29  1  0  0  0  0
  2  6  1  0  0  0  0
  2  3  1  0  0  0  0
  2 30  1  0  0  0  0
  3  4  1  0  0  0  0
  3 31  1  0  0  0  0
  3 32  1  0  0  0  0
  4  5  1  0  0  0  0
  4 33  1  0  0  0  0
  4 34  1  0  0  0  0
  5  6  1  0  0  0  0
  5 35  1  0  0  0  0
  5 36  1  0  0  0  0
  6  7  1  0  0  0  0
  6 37  1  0  0  0  0
  7 12  1  0  0  0  0
  7  8  1  0  0  0  0
  7 38  1  0  0  0  0
  8  9  1  0  0  0  0
  8 39  1  0  0  0  0
  8 40  1  0  0  0  0
  9 10  1  0  0  0  0
 10 11  1  0  0  0  0
 10 41  1  0  0  0  0
 10 42  1  0  0  0  0
 11 12  1  0  0  0  0
 11 43  1  0  0  0  0
 11 44  1  0  0  0  0
 12 13  1  0  0  0  0
 13 18  1  0  0  0  0
 13 14  2  0  0  0  0
 14 15  1  0  0  0  0
 15 16  2  0  0  0  0
 15 45  1  0  0  0  0
 16 17  1  0  0  0  0
 17 21  1  0  0  0  0
 17 18  2  0  0  0  0
 18 19  1  0  0  0  0
 19 20  2  0  0  0  0
 20 21  1  0  0  0  0
 20 46  1  0  0  0  0
 21 22  1  0  0  0  0
 22 23  1  0  0  0  0
 22 47  1  0  0  0  0
 22 48  1  0  0  0  0
 23 28  1  0  0  0  0
 23 24  1  0  0  0  0
 23 25  1  0  0  0  0
 24 49  1  0  0  0  0
 25 26  1  0  0  0  0
 25 50  1  0  0  0  0
 25 51  1  0  0  0  0
 26 27  1  0  0  0  0
 26 52  1  0  0  0  0
 26 53  1  0  0  0  0
 27 28  1  0  0  0  0
 28 54  1  0  0  0  0
 28 55  1  0  0  0  0
M  END
> <s_m_source_file>
AV-unprocessed.smi

> <i_m_source_file_index>
240

> <i_lp_mmshare_version>
43012

> <i_f3d_flags>
0

> <s_epik_input>
W09IXVtDQEBIXTFbQ0gyXVtDSDJdW0NIMl1bQ0BIXTFbQ0BASF0yW0NIMl1PW0NIMl1bQ0gyXU4yYyhuW2NIXW4zKWMoYzM0KW5bY0hdbjRbQ0gyXVtDQEBdNShbT0hdKVtDSDJdW0NIMl1PW0NIMl01

> <s_epik_cmdline>
J2VwaWtfcHl0aG9uJywgJy1waCcsICc3LjAnLCAnLXRuJywgJzgnLCAnLW1hJywgJzIwMCcsICctbWV0YWxfYmluZGluZycsICctaW1hZScsICc8aW5maWxlLm1hZT4nLCAnLW9tYWUnLCAnPG91dGZpbGUubWFlPic=

> <r_lp_tautomer_probability>
1

> <r_epik_Ionization_Penalty>
0.000130618

> <r_epik_Ionization_Penalty_Charging>
0

> <r_epik_Ionization_Penalty_Neutral>
0.000130618

> <r_epik_State_Penalty>
-0

> <r_epik_Charging_Adjusted_Penalty>
0

> <i_epik_Tot_Q>
0

> <i_epik_Tot_abs_Q>
0

> <r_epik_Metal_State_Penalty>
-0

> <b_epik_Metal_Only>
0

> <s_lp_Force_Field>
OPLS_2005

> <r_lp_Energy>
64.4166

> <b_lp_Chiralities_Consistent>
1

> <s_lp_Variant>
AV-unprocessed.smi:240-15

> <Gold.Version>
5.8.1

> <Gold.Id.Protein>
6NUR|6NUR_protein|mol2

> <Gold.PLP.Fitness>
43.0261

> <Gold.PLP.PLP>
-35.7029

> <Gold.PLP.part.hbond>
-4.2711

> <Gold.PLP.part.metal>
0.0000

> <Gold.PLP.part.buried>
-4.4406

> <Gold.PLP.part.nonpolar>
-28.4623

> <Gold.PLP.part.repulsive>
1.2789

> <Gold.PLP.ligand.clash>
0.0000

> <Gold.PLP.ligand.torsion>
1.8409

> <Gold.PLP.Chemscore.Hbond>
3.5400

> <Gold.PLP.Chemscore.CHOScore>
0.0000

> <Gold.PLP.Chemscore.Metal>
0.0000

> <Gold.Chemscore.Hbonds>
donor molecule, donor type, donor heavy atom, donor atom, acceptor molecule, acceptor atom, score
      L1  H     1    29       P1  7957  0.67
      L1  H    24    49       P1  7948  1.00
      P1  H  8011  8017       L1     1  0.80
      P1  H 10752 10763       L1    16  1.00

> <Gold.PLP.Chemscore.Internal.Correction>
0.3851

> <Gold.Rescore>
     Score         DG    S(hbond)    S(metal)    S(lipo)     H(rot)  DE(clash)    DE(int)     intcor
     12.09     -15.56       2.47        0.00      81.28       3.00       1.57       1.90       ----

> <Gold.Chemscore.Fitness>
12.0870

> <Gold.Chemscore.DG>
-15.5626

> <Gold.Chemscore.ZeroCoef>
-5.4800

> <Gold.Chemscore.Hbond>
2.4740

> <Gold.Chemscore.Metal>
0.0000

> <Gold.Chemscore.Lipo>
81.2765

> <Gold.Chemscore.Internal_Hbond>
0.0000

> <Gold.Chemscore.DEClash>
1.5711

> <Gold.Chemscore.DEInternal>
1.9045

> <Gold.Chemscore.Rot>
3.0039

> <Gold.Chemscore.Internal.Correction>
   9.000000E+99

> <Gold.Chemscore.Hbonds>
donor molecule, donor type, donor heavy atom, donor atom, acceptor molecule, acceptor atom, score
      L1  H     1    29       P1  7957  0.68
      L1  H    24    49       P1  7948  0.58
      P1  H  7989  7998       L1    14  0.01
      P1  H  8011  8017       L1     1  0.12
      P1  H 10752 10763       L1    16  0.36

> <Gold.Chemscore.Hbond.Weighted>
-8.2631

> <Gold.Chemscore.Metal.Weighted>
-0.0000

> <Gold.Chemscore.Lipo.Weighted>
-9.5094

> <Gold.Chemscore.Internal_Hbond.Weighted>
0.0000

> <Gold.Chemscore.DEClash.Weighted>
1.5711

> <Gold.Chemscore.DEInternal.Weighted>
1.9045

> <Gold.Chemscore.Rot.Weighted>
7.6899

> <Gold.Chemscore.Internal.Correction.Weighted>
   9.000000E+99

> <Gold.Protein.RotatedTorsions>
[ 6907 6896 6895 6894 ] final  -54.49 input  -60.11 | X-H torsion
[ 7974 7965 7964 7962 ] final  -20.43 input  175.53 | X-H torsion
[ 8008 7997 7996 7995 ] final    0.62 input   59.86 | X-H torsion
[ 10167 10162 10161 10158 ] final  122.31 input  -65.29 | X-H torsion
[ 10718 10713 10712 10709 ] final -107.02 input   66.30 | X-H torsion
[ 10763 10752 10751 10750 ] final   53.24 input  -60.55 | X-H torsion
[ 11005 11000 10999 10996 ] final  -93.21 input  -57.11 | X-H torsion

> <Gold.Protein.ActiveResidues>
 VAL166  LYS551  ARG553  GLY616  TRP617  ASP618  TYR619  PRO620  LYS621  CYS622 
 ASP623  PHE694  ASN695  SER759  ASP760  ASP761  ALA762  ILE779  LEU786  VAL792 
 PHE793  MET794  SER795  GLU796  ALA797  LYS798  CYS799  TRP800  GLU811  SER814 

> <Gold.Protein.RotatedAtoms>
  150.8334  134.7596  159.6871 H   0  0  0  0  0  0  0  0  0  0  0  0  # atno 6907 bound_to 6896
  152.4434  134.5540  159.9885 H   0  0  0  0  0  0  0  0  0  0  0  0  # atno 6908 bound_to 6896
  151.5696  133.3354  159.3023 H   0  0  0  0  0  0  0  0  0  0  0  0  # atno 6909 bound_to 6896
  146.1788  140.4201  142.8503 H   0  0  0  0  0  0  0  0  0  0  0  0  # atno 7974 bound_to 7965
  154.6702  140.2610  155.7015 H   0  0  0  0  0  0  0  0  0  0  0  0  # atno 8008 bound_to 7997
  156.2656  140.2831  156.1130 H   0  0  0  0  0  0  0  0  0  0  0  0  # atno 8009 bound_to 7997
  155.1179  140.0376  157.2732 H   0  0  0  0  0  0  0  0  0  0  0  0  # atno 8010 bound_to 7997
  139.5866  144.7009  151.3393 H   0  0  0  0  0  0  0  0  0  0  0  0  # atno 10167 bound_to 10162
  156.0417  130.5642  150.7763 H   0  0  0  0  0  0  0  0  0  0  0  0  # atno 10718 bound_to 10713
  152.9794  135.5785  154.4709 H   0  0  0  0  0  0  0  0  0  0  0  0  # atno 10763 bound_to 10752
  154.4272  135.2773  155.1939 H   0  0  0  0  0  0  0  0  0  0  0  0  # atno 10764 bound_to 10752
  154.3663  135.6178  153.5770 H   0  0  0  0  0  0  0  0  0  0  0  0  # atno 10765 bound_to 10752
  141.1503  133.7872  157.0128 H   0  0  0  0  0  0  0  0  0  0  0  0  # atno 11005 bound_to 11000
  144.8280  140.6661  143.6309 LP  0  0  0  0  0  0  0  0  0  0  0  0  # atno 17320 bound_to 7965
  145.4135  139.1576  143.4113 LP  0  0  0  0  0  0  0  0  0  0  0  0  # atno 17321 bound_to 7965
  140.7137  143.7324  150.7614 LP  0  0  0  0  0  0  0  0  0  0  0  0  # atno 17342 bound_to 10162
  140.0870  143.4914  152.2499 LP  0  0  0  0  0  0  0  0  0  0  0  0  # atno 17343 bound_to 10162
  157.5243  131.0933  151.0038 LP  0  0  0  0  0  0  0  0  0  0  0  0  # atno 17370 bound_to 10713
  157.0361  130.5730  149.5349 LP  0  0  0  0  0  0  0  0  0  0  0  0  # atno 17371 bound_to 10713
  140.0866  134.9617  157.1710 LP  0  0  0  0  0  0  0  0  0  0  0  0  # atno 17394 bound_to 11000
  140.3503  134.2606  155.7199 LP  0  0  0  0  0  0  0  0  0  0  0  0  # atno 17395 bound_to 11000

$$$$
