AV-unprocessed.smi:287|AV-procd|sdf|2190|dock5
  -GOLD-   2262021583D 1   1.00000     0.00000
 Structure written by MMmdl.
 55 58  0  0  0  0  0  0  0  0  1 V2000
  152.2532  144.5699  159.6028 C   0  0  0  0  0  0  0  0  0  0  0  0
  152.6846  143.1593  159.8149 C   0  0  0  0  0  0  0  0  0  0  0  0
  152.5968  142.0218  159.0666 C   0  0  0  0  0  0  0  0  0  0  0  0
  153.2074  140.9710  159.8142 C   0  0  0  0  0  0  0  0  0  0  0  0
  153.3454  139.5221  159.3657 C   0  0  2  0  0  0  0  0  0  0  0  0
  153.5238  138.6096  160.5909 C   0  0  0  0  0  0  0  0  0  0  0  0
  154.4915  139.2993  158.5671 O   0  0  0  0  0  0  0  0  0  0  0  0
  152.1376  139.0512  158.5227 C   0  0  0  0  0  0  0  0  0  0  0  0
  152.5191  138.5910  157.1912 N   0  0  0  0  0  0  0  0  0  0  0  0
  151.6198  138.5987  156.1850 C   0  0  0  0  0  0  0  0  0  0  0  0
  151.9093  138.0341  154.9846 N   0  0  0  0  0  0  0  0  0  0  0  0
  151.0013  138.0519  154.0059 C   0  0  0  0  0  0  0  0  0  0  0  0
  149.7723  138.5716  154.0191 N   0  0  0  0  0  0  0  0  0  0  0  0
  149.4702  139.1433  155.2217 C   0  0  0  0  0  0  0  0  0  0  0  0
  150.3418  139.1934  156.3473 C   0  0  0  0  0  0  0  0  0  0  0  0
  149.7152  139.8387  157.4024 N   0  0  0  0  0  0  0  0  0  0  0  0
  148.5397  140.1462  156.9271 C   0  0  0  0  0  0  0  0  0  0  0  0
  148.3049  139.7808  155.6188 N   0  0  0  0  0  0  0  0  0  0  0  0
  147.0205  139.9989  154.8640 C   0  0  2  0  0  0  0  0  0  0  0  0
  146.2979  138.8092  154.8757 O   0  0  0  0  0  0  0  0  0  0  0  0
  146.5217  138.1091  153.6632 C   0  0  1  0  0  0  0  0  0  0  0  0
  145.3885  137.1000  153.4057 C   0  0  0  0  0  0  0  0  0  0  0  0
  144.1850  137.7368  153.0283 O   0  0  0  0  0  0  0  0  0  0  0  0
  146.7408  139.1957  152.5964 C   0  0  2  0  0  0  0  0  0  0  0  0
  147.7232  138.7764  151.6708 O   0  0  0  0  0  0  0  0  0  0  0  0
  147.2279  140.4124  153.3932 C   0  0  1  0  0  0  0  0  0  0  0  0
  146.4463  141.5459  153.0728 O   0  0  0  0  0  0  0  0  0  0  0  0
  153.6160  141.5654  160.9844 C   0  0  0  0  0  0  0  0  0  0  0  0
  154.3100  141.0745  162.2121 C   0  0  0  0  0  0  0  0  0  0  0  0
  153.3041  142.8915  160.9915 O   0  0  0  0  0  0  0  0  0  0  0  0
  146.5021  140.7570  155.4531 H   0  0  0  0  0  0  0  0  0  0  0  0
  147.4401  137.5406  153.8093 H   0  0  0  0  0  0  0  0  0  0  0  0
  145.8185  139.4260  152.0624 H   0  0  0  0  0  0  0  0  0  0  0  0
  148.2722  140.6635  153.2078 H   0  0  0  0  0  0  0  0  0  0  0  0
  151.8626  144.7099  158.5947 H   0  0  0  0  0  0  0  0  0  0  0  0
  153.0901  145.2550  159.7383 H   0  0  0  0  0  0  0  0  0  0  0  0
  151.4708  144.8451  160.3102 H   0  0  0  0  0  0  0  0  0  0  0  0
  152.1491  141.9504  158.0866 H   0  0  0  0  0  0  0  0  0  0  0  0
  152.6646  138.6720  161.2595 H   0  0  0  0  0  0  0  0  0  0  0  0
  154.4077  138.8871  161.1667 H   0  0  0  0  0  0  0  0  0  0  0  0
  153.6344  137.5646  160.2989 H   0  0  0  0  0  0  0  0  0  0  0  0
  155.2324  139.1639  159.1379 H   0  0  0  0  0  0  0  0  0  0  0  0
  151.5722  138.2794  159.0478 H   0  0  0  0  0  0  0  0  0  0  0  0
  151.4597  139.8950  158.3854 H   0  0  0  0  0  0  0  0  0  0  0  0
  153.4864  138.3237  157.0744 H   0  0  0  0  0  0  0  0  0  0  0  0
  151.3020  137.5841  153.0801 H   0  0  0  0  0  0  0  0  0  0  0  0
  147.8005  140.6557  157.5282 H   0  0  0  0  0  0  0  0  0  0  0  0
  145.6763  136.4227  152.6014 H   0  0  0  0  0  0  0  0  0  0  0  0
  145.2134  136.4878  154.2904 H   0  0  0  0  0  0  0  0  0  0  0  0
  144.3684  138.6480  152.8569 H   0  0  0  0  0  0  0  0  0  0  0  0
  148.5045  139.2894  151.8138 H   0  0  0  0  0  0  0  0  0  0  0  0
  145.5520  141.2665  152.9475 H   0  0  0  0  0  0  0  0  0  0  0  0
  153.7510  140.2597  162.6722 H   0  0  0  0  0  0  0  0  0  0  0  0
  154.4130  141.8686  162.9521 H   0  0  0  0  0  0  0  0  0  0  0  0
  155.3083  140.7093  161.9713 H   0  0  0  0  0  0  0  0  0  0  0  0
  1  2  1  0  0  0  0
  1 35  1  0  0  0  0
  1 36  1  0  0  0  0
  1 37  1  0  0  0  0
  2 30  1  0  0  0  0
  2  3  2  0  0  0  0
  3  4  1  0  0  0  0
  3 38  1  0  0  0  0
  4  5  1  0  0  0  0
  4 28  2  0  0  0  0
  5  6  1  0  0  0  0
  5  7  1  0  0  0  0
  5  8  1  0  0  0  0
  6 39  1  0  0  0  0
  6 40  1  0  0  0  0
  6 41  1  0  0  0  0
  7 42  1  0  0  0  0
  8  9  1  0  0  0  0
  8 43  1  0  0  0  0
  8 44  1  0  0  0  0
  9 10  1  0  0  0  0
  9 45  1  0  0  0  0
 10 15  1  0  0  0  0
 10 11  2  0  0  0  0
 11 12  1  0  0  0  0
 12 13  2  0  0  0  0
 12 46  1  0  0  0  0
 13 14  1  0  0  0  0
 14 18  1  0  0  0  0
 14 15  2  0  0  0  0
 15 16  1  0  0  0  0
 16 17  2  0  0  0  0
 17 18  1  0  0  0  0
 17 47  1  0  0  0  0
 18 19  1  0  0  0  0
 19 31  1  0  0  0  0
 19 26  1  0  0  0  0
 19 20  1  0  0  0  0
 20 21  1  0  0  0  0
 21 32  1  0  0  0  0
 21 22  1  0  0  0  0
 21 24  1  0  0  0  0
 22 23  1  0  0  0  0
 22 48  1  0  0  0  0
 22 49  1  0  0  0  0
 23 50  1  0  0  0  0
 24 33  1  0  0  0  0
 24 25  1  0  0  0  0
 24 26  1  0  0  0  0
 25 51  1  0  0  0  0
 26 34  1  0  0  0  0
 26 27  1  0  0  0  0
 27 52  1  0  0  0  0
 28 29  1  0  0  0  0
 28 30  1  0  0  0  0
 29 53  1  0  0  0  0
 29 54  1  0  0  0  0
 29 55  1  0  0  0  0
M  END
> <s_m_source_file>
AV-unprocessed.smi

> <i_m_source_file_index>
287

> <i_lp_mmshare_version>
43012

> <i_f3d_flags>
0

> <s_epik_input>
W0NIM11jMVtjSF1jKGMobzEpW0NIM10pW0NAQF0oW0NIM10pKFtPSF0pW0NIMl1bTkhdYyhuW2NIXW4yKWMoYzIzKW5bY0hdbjNbQ0BASF00T1tDQEhdKFtDSDJdW09IXSlbQ0BASF0oW09IXSlbQ0BIXTRbT0hd

> <s_epik_cmdline>
J2VwaWtfcHl0aG9uJywgJy1waCcsICc3LjAnLCAnLXRuJywgJzgnLCAnLW1hJywgJzIwMCcsICctbWV0YWxfYmluZGluZycsICctaW1hZScsICc8aW5maWxlLm1hZT4nLCAnLW9tYWUnLCAnPG91dGZpbGUubWFlPic=

> <r_lp_tautomer_probability>
1

> <r_epik_Ionization_Penalty>
0.000992612

> <r_epik_Ionization_Penalty_Charging>
0

> <r_epik_Ionization_Penalty_Neutral>
0.000992612

> <r_epik_State_Penalty>
-0

> <r_epik_Charging_Adjusted_Penalty>
0

> <i_epik_Tot_Q>
0

> <i_epik_Tot_abs_Q>
0

> <r_epik_Metal_State_Penalty>
-0

> <b_epik_Metal_Only>
0

> <s_epik_Chemistry_Notes>
This compound contains an acetal/aminal-like group ( X-CH(R)-Y where X, Y are N, S, or O) that may be acid/base labile, releasing an aldehyde.

> <s_lp_Force_Field>
OPLS_2005

> <r_lp_Energy>
41.2787

> <b_lp_Chiralities_Consistent>
1

> <s_lp_Variant>
AV-unprocessed.smi:287-14

> <Gold.Version>
5.8.1

> <Gold.Id.Protein>
6NUR|6NUR_protein|mol2

> <Gold.PLP.Fitness>
52.8215

> <Gold.PLP.PLP>
-42.2634

> <Gold.PLP.part.hbond>
-5.3787

> <Gold.PLP.part.metal>
0.0000

> <Gold.PLP.part.buried>
-4.2209

> <Gold.PLP.part.nonpolar>
-33.7500

> <Gold.PLP.part.repulsive>
0.4986

> <Gold.PLP.ligand.clash>
0.0000

> <Gold.PLP.ligand.torsion>
2.9280

> <Gold.PLP.Chemscore.Hbond>
4.4275

> <Gold.PLP.Chemscore.CHOScore>
1.0000

> <Gold.PLP.Chemscore.Metal>
0.0000

> <Gold.Chemscore.Hbonds>
donor molecule, donor type, donor heavy atom, donor atom, acceptor molecule, acceptor atom, score
      L1  H    23    50       P1 10175  0.94
      L1  H    25    51       P1  7957  0.72
      L1  H    27    52       P1 10175  0.64
      P1  H  7954  7966       L1    25  0.86
      P1  H  7997  8009       L1     7  1.00
      L1  C    12    46       P1  7949  1.00

> <Gold.PLP.Chemscore.Internal.Correction>
0.1317

> <Gold.Rescore>
     Score         DG    S(hbond)    S(metal)    S(lipo)     H(rot)  DE(clash)    DE(int)     intcor
      9.20     -14.41       2.98        0.00     106.59       5.27       0.16       5.05       ----

> <Gold.Chemscore.Fitness>
9.2011

> <Gold.Chemscore.DG>
-14.4108

> <Gold.Chemscore.ZeroCoef>
-5.4800

> <Gold.Chemscore.Hbond>
2.9771

> <Gold.Chemscore.Metal>
0.0000

> <Gold.Chemscore.Lipo>
106.5913

> <Gold.Chemscore.Internal_Hbond>
0.0000

> <Gold.Chemscore.DEClash>
0.1578

> <Gold.Chemscore.DEInternal>
5.0518

> <Gold.Chemscore.Rot>
5.2672

> <Gold.Chemscore.Internal.Correction>
   9.000000E+99

> <Gold.Chemscore.Hbonds>
donor molecule, donor type, donor heavy atom, donor atom, acceptor molecule, acceptor atom, score
      L1  H    23    50       P1 10175  0.89
      L1  H    25    51       P1  7957  0.68
      L1  H    27    52       P1 10175  0.06
      P1  H  7954  7966       L1    25  0.20
      P1  H  7997  8009       L1     7  0.33

> <Gold.Chemscore.Hbond.Weighted>
-9.9435

> <Gold.Chemscore.Metal.Weighted>
-0.0000

> <Gold.Chemscore.Lipo.Weighted>
-12.4712

> <Gold.Chemscore.Internal_Hbond.Weighted>
0.0000

> <Gold.Chemscore.DEClash.Weighted>
0.1578

> <Gold.Chemscore.DEInternal.Weighted>
5.0518

> <Gold.Chemscore.Rot.Weighted>
13.4839

> <Gold.Chemscore.Internal.Correction.Weighted>
   9.000000E+99

> <Gold.Protein.RotatedTorsions>
[ 6907 6896 6895 6894 ] final  -13.52 input  -60.11 | X-H torsion
[ 7974 7965 7964 7962 ] final   49.75 input  175.53 | X-H torsion
[ 8008 7997 7996 7995 ] final  117.21 input   59.86 | X-H torsion
[ 10167 10162 10161 10158 ] final  -53.52 input  -65.29 | X-H torsion
[ 10718 10713 10712 10709 ] final   91.65 input   66.30 | X-H torsion
[ 10763 10752 10751 10750 ] final  -22.01 input  -60.55 | X-H torsion
[ 11005 11000 10999 10996 ] final  106.81 input  -57.11 | X-H torsion

> <Gold.Protein.ActiveResidues>
 VAL166  LYS551  ARG553  GLY616  TRP617  ASP618  TYR619  PRO620  LYS621  CYS622 
 ASP623  PHE694  ASN695  SER759  ASP760  ASP761  ALA762  ILE779  LEU786  VAL792 
 PHE793  MET794  SER795  GLU796  ALA797  LYS798  CYS799  TRP800  GLU811  SER814 

> <Gold.Protein.RotatedAtoms>
  151.3536  135.0889  159.9410 H   0  0  0  0  0  0  0  0  0  0  0  0  # atno 6907 bound_to 6896
  152.5181  133.9328  159.7599 H   0  0  0  0  0  0  0  0  0  0  0  0  # atno 6908 bound_to 6896
  150.9708  133.6292  159.2767 H   0  0  0  0  0  0  0  0  0  0  0  0  # atno 6909 bound_to 6896
  146.0078  139.4510  142.9975 H   0  0  0  0  0  0  0  0  0  0  0  0  # atno 7974 bound_to 7965
  156.2482  140.2901  156.0644 H   0  0  0  0  0  0  0  0  0  0  0  0  # atno 8008 bound_to 7997
  155.1740  140.0402  157.2886 H   0  0  0  0  0  0  0  0  0  0  0  0  # atno 8009 bound_to 7997
  154.6306  140.2498  155.7446 H   0  0  0  0  0  0  0  0  0  0  0  0  # atno 8010 bound_to 7997
  140.6480  143.2547  151.4805 H   0  0  0  0  0  0  0  0  0  0  0  0  # atno 10167 bound_to 10162
  157.6960  131.0415  150.3762 H   0  0  0  0  0  0  0  0  0  0  0  0  # atno 10718 bound_to 10713
  153.6452  135.6983  153.5228 H   0  0  0  0  0  0  0  0  0  0  0  0  # atno 10763 bound_to 10752
  153.2750  135.4203  155.1024 H   0  0  0  0  0  0  0  0  0  0  0  0  # atno 10764 bound_to 10752
  154.8490  135.3588  154.5996 H   0  0  0  0  0  0  0  0  0  0  0  0  # atno 10765 bound_to 10752
  139.8819  134.9381  156.5724 H   0  0  0  0  0  0  0  0  0  0  0  0  # atno 11005 bound_to 11000
  145.7388  141.0015  143.1312 LP  0  0  0  0  0  0  0  0  0  0  0  0  # atno 17320 bound_to 7965
  144.6942  139.9074  143.7462 LP  0  0  0  0  0  0  0  0  0  0  0  0  # atno 17321 bound_to 7965
  139.5692  144.1969  152.1811 LP  0  0  0  0  0  0  0  0  0  0  0  0  # atno 17342 bound_to 10162
  140.1260  144.5331  150.6833 LP  0  0  0  0  0  0  0  0  0  0  0  0  # atno 17343 bound_to 10162
  156.4181  130.3947  149.6844 LP  0  0  0  0  0  0  0  0  0  0  0  0  # atno 17370 bound_to 10713
  156.4104  130.7719  151.2732 LP  0  0  0  0  0  0  0  0  0  0  0  0  # atno 17371 bound_to 10713
  140.8088  133.8445  155.8792 LP  0  0  0  0  0  0  0  0  0  0  0  0  # atno 17394 bound_to 11000
  140.9525  134.1760  157.4717 LP  0  0  0  0  0  0  0  0  0  0  0  0  # atno 17395 bound_to 11000

$$$$
