AV-unprocessed.smi:809|AV-procd|sdf|3808|dock1
  -GOLD-   22720 1243D 1   1.00000     0.00000
 Structure written by MMmdl.
 39 40  0  0  0  0  0  0  0  0  3 V2000
  147.8276  132.4083  161.1514 C   0  0  0  0  0  0  0  0  0  0  0  0
  147.7564  133.8329  161.6033 C   0  0  0  0  0  0  0  0  0  0  0  0
  147.4616  134.2861  162.8628 C   0  0  0  0  0  0  0  0  0  0  0  0
  147.4863  136.0246  162.9422 S   0  0  0  0  0  0  0  0  0  0  0  0
  147.9116  136.0852  161.2302 C   0  0  0  0  0  0  0  0  0  0  0  0
  148.1090  137.2122  160.5270 N   0  5  0  0  0  0  0  0  0  0  0  0
  148.7890  137.1689  159.3599 C   0  0  0  0  0  0  0  0  0  0  0  0
  149.8184  136.5266  159.1406 O   0  0  0  0  0  0  0  0  0  0  0  0
  148.2497  137.9303  158.3964 N   0  0  0  0  0  0  0  0  0  0  0  0
  148.7860  138.1510  157.0542 C   0  0  0  0  0  0  0  0  0  0  0  0
  148.6580  139.6279  156.5899 C   0  0  1  0  0  0  0  0  0  0  0  0
  149.1125  140.4259  157.6669 O   0  0  0  0  0  0  0  0  0  0  0  0
  149.4728  140.0027  155.3293 C   0  0  0  0  0  0  0  0  0  0  0  0
  148.8760  139.3816  154.0548 C   0  0  0  0  0  0  0  0  0  0  0  0
  147.4613  139.7909  153.8780 N   0  3  1  0  0  0  0  0  0  0  0  0
  146.8930  139.3056  152.6021 C   0  0  0  0  0  0  0  0  0  0  0  0
  146.6207  139.4256  155.0454 C   0  0  0  0  0  0  0  0  0  0  0  0
  147.1835  140.0216  156.3510 C   0  0  0  0  0  0  0  0  0  0  0  0
  148.0018  134.8636  160.6930 N   0  0  0  0  0  0  0  0  0  0  0  0
  147.8590  131.7228  161.9986 H   0  0  0  0  0  0  0  0  0  0  0  0
  148.7197  132.2286  160.5507 H   0  0  0  0  0  0  0  0  0  0  0  0
  146.9604  132.1456  160.5453 H   0  0  0  0  0  0  0  0  0  0  0  0
  147.2310  133.7074  163.7443 H   0  0  0  0  0  0  0  0  0  0  0  0
  147.4040  138.4308  158.6293 H   0  0  0  0  0  0  0  0  0  0  0  0
  149.8263  137.8302  157.0160 H   0  0  0  0  0  0  0  0  0  0  0  0
  148.2616  137.4896  156.3633 H   0  0  0  0  0  0  0  0  0  0  0  0
  148.9874  139.9496  158.4731 H   0  0  0  0  0  0  0  0  0  0  0  0
  149.4768  141.0876  155.2111 H   0  0  0  0  0  0  0  0  0  0  0  0
  150.5206  139.7195  155.4312 H   0  0  0  0  0  0  0  0  0  0  0  0
  149.4581  139.7035  153.1904 H   0  0  0  0  0  0  0  0  0  0  0  0
  148.9394  138.2944  154.0878 H   0  0  0  0  0  0  0  0  0  0  0  0
  146.8648  138.2155  152.5768 H   0  0  0  0  0  0  0  0  0  0  0  0
  147.4900  139.6523  151.7578 H   0  0  0  0  0  0  0  0  0  0  0  0
  145.8771  139.6781  152.4664 H   0  0  0  0  0  0  0  0  0  0  0  0
  145.6076  139.7980  154.8889 H   0  0  0  0  0  0  0  0  0  0  0  0
  146.5426  138.3403  155.1155 H   0  0  0  0  0  0  0  0  0  0  0  0
  146.5663  139.7145  157.1963 H   0  0  0  0  0  0  0  0  0  0  0  0
  147.0992  141.1084  156.2945 H   0  0  0  0  0  0  0  0  0  0  0  0
  147.4604  140.7995  153.8269 H   0  0  0  0  0  0  0  0  0  0  0  0
  1  2  1  0  0  0  0
  1 20  1  0  0  0  0
  1 21  1  0  0  0  0
  1 22  1  0  0  0  0
  2 19  1  0  0  0  0
  2  3  2  0  0  0  0
  3  4  1  0  0  0  0
  3 23  1  0  0  0  0
  4  5  1  0  0  0  0
  5  6  1  0  0  0  0
  5 19  2  0  0  0  0
  6  7  1  0  0  0  0
  7  8  2  0  0  0  0
  7  9  1  0  0  0  0
  9 10  1  0  0  0  0
  9 24  1  0  0  0  0
 10 11  1  0  0  0  0
 10 25  1  0  0  0  0
 10 26  1  0  0  0  0
 11 18  1  0  0  0  0
 11 12  1  0  0  0  0
 11 13  1  0  0  0  0
 12 27  1  0  0  0  0
 13 14  1  0  0  0  0
 13 28  1  0  0  0  0
 13 29  1  0  0  0  0
 14 15  1  0  0  0  0
 14 30  1  0  0  0  0
 14 31  1  0  0  0  0
 15 16  1  0  0  0  0
 15 17  1  0  0  0  0
 15 39  1  0  0  0  0
 16 32  1  0  0  0  0
 16 33  1  0  0  0  0
 16 34  1  0  0  0  0
 17 18  1  0  0  0  0
 17 35  1  0  0  0  0
 17 36  1  0  0  0  0
 18 37  1  0  0  0  0
 18 38  1  0  0  0  0
M  CHG  1   6  -1
M  CHG  1  15   1
M  END
> <s_m_source_file>
AV-unprocessed.smi

> <i_m_source_file_index>
809

> <i_lp_mmshare_version>
43012

> <i_f3d_flags>
0

> <s_epik_input>
W0NIM11jMVtjSF1zYyhuMSlbTkhdQyg9TylbTkhdW0NIMl1DMihbT0hdKVtDSDJdW0NIMl1OKFtDSDNdKVtDSDJdW0NIMl0y

> <s_epik_cmdline>
J2VwaWtfcHl0aG9uJywgJy1waCcsICc3LjAnLCAnLXRuJywgJzgnLCAnLW1hJywgJzIwMCcsICctbWV0YWxfYmluZGluZycsICctaW1hZScsICc8aW5maWxlLm1hZT4nLCAnLW9tYWUnLCAnPG91dGZpbGUubWFlPic=

> <r_lp_tautomer_probability>
0.999

> <r_epik_Ionization_Penalty>
8.50704

> <r_epik_Ionization_Penalty_Charging>
6.65046

> <r_epik_Ionization_Penalty_Neutral>
1.85657

> <r_epik_State_Penalty>
6.64992

> <r_epik_Charging_Adjusted_Penalty>
13.3004

> <i_epik_Tot_Q>
0

> <i_epik_Tot_abs_Q>
2

> <r_epik_Metal_State_Penalty>
2.57297

> <b_epik_Metal_Only>
1

> <s_lp_Force_Field>
OPLS_2005

> <r_lp_Energy>
8.4344

> <b_lp_Chiralities_Consistent>
1

> <s_lp_Variant>
AV-unprocessed.smi:809-4

> <Gold.Version>
5.8.1

> <Gold.Id.Protein>
6NUR|6NUR_protein|mol2

> <Gold.PLP.Fitness>
38.6718

> <Gold.PLP.PLP>
-28.0287

> <Gold.PLP.part.hbond>
-2.9377

> <Gold.PLP.part.metal>
0.0000

> <Gold.PLP.part.buried>
-1.9469

> <Gold.PLP.part.nonpolar>
-23.7383

> <Gold.PLP.part.repulsive>
0.1478

> <Gold.PLP.ligand.clash>
0.0000

> <Gold.PLP.ligand.torsion>
0.6497

> <Gold.PLP.Chemscore.Hbond>
3.9612

> <Gold.PLP.Chemscore.CHOScore>
0.0000

> <Gold.PLP.Chemscore.Metal>
0.0000

> <Gold.Chemscore.Hbonds>
donor molecule, donor type, donor heavy atom, donor atom, acceptor molecule, acceptor atom, score
      P1  H  6896  6907       L1     8  1.00
      P1  H  6931  6943       L1     6  1.43
      P1  H  6934  6947       L1     6  1.28

> <Gold.PLP.Chemscore.Internal.Correction>
0.0591

> <Gold.Rescore>
     Score         DG    S(hbond)    S(metal)    S(lipo)     H(rot)  DE(clash)    DE(int)     intcor
     12.34     -14.32       2.06        0.00      56.65       1.82       0.02       1.97       ----

> <Gold.Chemscore.Fitness>
12.3363

> <Gold.Chemscore.DG>
-14.3234

> <Gold.Chemscore.ZeroCoef>
-5.4800

> <Gold.Chemscore.Hbond>
2.0573

> <Gold.Chemscore.Metal>
0.0000

> <Gold.Chemscore.Lipo>
56.6458

> <Gold.Chemscore.Internal_Hbond>
0.0000

> <Gold.Chemscore.DEClash>
0.0215

> <Gold.Chemscore.DEInternal>
1.9656

> <Gold.Chemscore.Rot>
1.8186

> <Gold.Chemscore.Internal.Correction>
   9.000000E+99

> <Gold.Chemscore.Hbonds>
donor molecule, donor type, donor heavy atom, donor atom, acceptor molecule, acceptor atom, score
      P1  H  6896  6907       L1     8  0.93
      P1  H  6931  6943       L1     6  0.13
      P1  H  6934  6947       L1     6  0.54

> <Gold.Chemscore.Hbond.Weighted>
-6.8715

> <Gold.Chemscore.Metal.Weighted>
-0.0000

> <Gold.Chemscore.Lipo.Weighted>
-6.6276

> <Gold.Chemscore.Internal_Hbond.Weighted>
0.0000

> <Gold.Chemscore.DEClash.Weighted>
0.0215

> <Gold.Chemscore.DEInternal.Weighted>
1.9656

> <Gold.Chemscore.Rot.Weighted>
4.6557

> <Gold.Chemscore.Internal.Correction.Weighted>
   9.000000E+99

> <Gold.Protein.RotatedTorsions>
[ 6907 6896 6895 6894 ] final  -50.40 input  -60.11 | X-H torsion
[ 7974 7965 7964 7962 ] final -175.72 input  175.53 | X-H torsion
[ 8008 7997 7996 7995 ] final   82.97 input   59.86 | X-H torsion
[ 10167 10162 10161 10158 ] final  162.69 input  -65.29 | X-H torsion
[ 10718 10713 10712 10709 ] final -111.93 input   66.30 | X-H torsion
[ 10763 10752 10751 10750 ] final  120.42 input  -60.55 | X-H torsion
[ 11005 11000 10999 10996 ] final  -20.20 input  -57.11 | X-H torsion

> <Gold.Protein.ActiveResidues>
 VAL166  LYS551  ARG553  GLY616  TRP617  ASP618  TYR619  PRO620  LYS621  CYS622 
 ASP623  PHE694  ASN695  SER759  ASP760  ASP761  ALA762  ILE779  LEU786  VAL792 
 PHE793  MET794  SER795  GLU796  ALA797  LYS798  CYS799  TRP800  GLU811  SER814 

> <Gold.Protein.RotatedAtoms>
  150.8711  134.8085  159.7154 H   0  0  0  0  0  0  0  0  0  0  0  0  # atno 6907 bound_to 6896
  152.4715  134.4946  159.9715 H   0  0  0  0  0  0  0  0  0  0  0  0  # atno 6908 bound_to 6896
  151.5034  133.3461  159.2908 H   0  0  0  0  0  0  0  0  0  0  0  0  # atno 6909 bound_to 6896
  144.7127  140.1279  143.6401 H   0  0  0  0  0  0  0  0  0  0  0  0  # atno 7974 bound_to 7965
  155.9178  140.3423  155.6148 H   0  0  0  0  0  0  0  0  0  0  0  0  # atno 8008 bound_to 7997
  155.7310  140.0795  157.2307 H   0  0  0  0  0  0  0  0  0  0  0  0  # atno 8009 bound_to 7997
  154.4065  140.1588  156.2496 H   0  0  0  0  0  0  0  0  0  0  0  0  # atno 8010 bound_to 7997
  139.4864  144.4412  151.8949 H   0  0  0  0  0  0  0  0  0  0  0  0  # atno 10167 bound_to 10162
  156.0675  130.5893  150.8439 H   0  0  0  0  0  0  0  0  0  0  0  0  # atno 10718 bound_to 10713
  153.5982  135.3453  155.2935 H   0  0  0  0  0  0  0  0  0  0  0  0  # atno 10763 bound_to 10752
  154.8641  135.4221  154.2442 H   0  0  0  0  0  0  0  0  0  0  0  0  # atno 10764 bound_to 10752
  153.3264  135.7041  153.7056 H   0  0  0  0  0  0  0  0  0  0  0  0  # atno 10765 bound_to 10752
  140.8441  133.7904  155.9893 H   0  0  0  0  0  0  0  0  0  0  0  0  # atno 11005 bound_to 11000
  145.9313  139.2608  143.1323 LP  0  0  0  0  0  0  0  0  0  0  0  0  # atno 17320 bound_to 7965
  145.9520  140.8901  143.0254 LP  0  0  0  0  0  0  0  0  0  0  0  0  # atno 17321 bound_to 7965
  140.3864  144.2671  150.5903 LP  0  0  0  0  0  0  0  0  0  0  0  0  # atno 17342 bound_to 10162
  140.5186  143.2271  151.8424 LP  0  0  0  0  0  0  0  0  0  0  0  0  # atno 17343 bound_to 10162
  157.5726  131.0946  150.9394 LP  0  0  0  0  0  0  0  0  0  0  0  0  # atno 17370 bound_to 10713
  156.9607  130.5454  149.5286 LP  0  0  0  0  0  0  0  0  0  0  0  0  # atno 17371 bound_to 10713
  140.8862  134.2550  157.5118 LP  0  0  0  0  0  0  0  0  0  0  0  0  # atno 17394 bound_to 11000
  139.8703  134.9639  156.4479 LP  0  0  0  0  0  0  0  0  0  0  0  0  # atno 17395 bound_to 11000

$$$$
