#       Name:                AV-unprocessed.smi:2041
#       Creating user name   scv26
#       Creation time:       Fri Mar 27 10:56:01 2020


#       File generated by GOLD software.
#

@<TRIPOS>MOLECULE
AV-unprocessed.smi:2041
    36    37     1
SMALL
NO_CHARGES


@<TRIPOS>ATOM
      1 ****         1.9984   0.2691   0.1918 O.2            1 S1                 0.0000
      2 ****         1.4821  -0.7996  -0.1433 C.2            1 S1                 0.0000
      3 ****         2.1297  -1.9640  -0.3778 N.pl3          1 S1                -1.0000
      4 ****         3.4617  -2.0345  -0.2219 C.2            1 S1                 0.0000
      5 ****         4.3199  -1.9978  -1.2479 N.2            1 S1                 0.0000
      6 ****         5.6568  -2.0920  -0.8569 C.2            1 S1                 0.0000
      7 ****         5.8203  -2.2132   0.4975 C.2            1 S1                 0.0000
      8 ****         4.2904  -2.2119   1.3277 S.3            1 S1                 0.0000
      9 ****         0.1518  -0.8794  -0.3023 N.am           1 S1                 0.0000
     10 ****        -0.8117   0.2073  -0.1037 C.3            1 S1                 0.0000
     11 ****        -2.0858  -0.1447  -0.9058 C.3            1 S1                 0.0000
     12 ****        -2.9580   1.0742  -1.2553 C.3            1 S1                 0.0000
     13 ****        -3.5773   1.7982  -0.0500 C.3            1 S1                 0.0000
     14 ****        -2.5378   2.4034   0.9088 C.3            1 S1                 0.0000
     15 ****        -1.9385   1.3951   1.7725 N.am           1 S1                 0.0000
     16 ****        -1.1776   0.3576   1.3920 C.2            1 S1                 0.0000
     17 ****        -0.7865  -0.4612   2.2236 O.2            1 S1                 0.0000
     18 ****         6.4286  -2.0653  -1.6115 H              1 S1                 0.0000
     19 ****         6.7404  -2.3037   1.0547 H              1 S1                 0.0000
     20 ****        -0.2259  -1.7762  -0.5697 H              1 S1                 0.0000
     21 ****        -0.3777   1.1356  -0.4791 H              1 S1                 0.0000
     22 ****        -1.7939  -0.6077  -1.8500 H              1 S1                 0.0000
     23 ****        -2.6799  -0.8977  -0.3847 H              1 S1                 0.0000
     24 ****        -2.3699   1.7824  -1.8401 H              1 S1                 0.0000
     25 ****        -3.7643   0.7459  -1.9121 H              1 S1                 0.0000
     26 ****        -4.2083   2.6036  -0.4271 H              1 S1                 0.0000
     27 ****        -4.2439   1.1263   0.4925 H              1 S1                 0.0000
     28 ****        -1.7665   2.9494   0.3638 H              1 S1                 0.0000
     29 ****        -3.0280   3.1298   1.5574 H              1 S1                 0.0000
     30 ****        -2.1474   1.4703   2.7575 H              1 S1                 0.0000
     31 ****         2.9890   0.3291   0.3144 LP             1 S1                 0.0000
     32 ****         1.4264   1.0757   0.3409 LP             1 S1                 0.0000
     33 ****         1.6166  -2.7721  -0.6672 LP             1 S1                 0.0000
     34 ****         4.0317  -1.9113  -2.2016 LP             1 S1                 0.0000
     35 ****        -0.2244  -1.2365   1.9358 LP             1 S1                 0.0000
     36 ****        -1.0310  -0.3511   3.1870 LP             1 S1                 0.0000
@<TRIPOS>BOND
    1    1    2 2     
    2    2    3 1     
    3    2    9 am    
    4    3    4 1     
    5    4    8 1     
    6    4    5 2     
    7    5    6 1     
    8    6    7 2     
    9    6   18 1     
   10    7    8 1     
   11    7   19 1     
   12    9   10 1     
   13    9   20 1     
   14   10   16 1     
   15   10   11 1     
   16   10   21 1     
   17   11   12 1     
   18   11   22 1     
   19   11   23 1     
   20   12   13 1     
   21   12   24 1     
   22   12   25 1     
   23   13   14 1     
   24   13   26 1     
   25   13   27 1     
   26   14   15 1     
   27   14   28 1     
   28   14   29 1     
   29   15   16 am    
   30   15   30 1     
   31   16   17 2     
   32    1   31 1     
   33    1   32 1     
   34    3   33 1     
   35    5   34 1     
   36   17   35 1     
   37   17   36 1     
@<TRIPOS>SUBSTRUCTURE
      1 S1             1
@<TRIPOS>SET
LONE_PAIRS      STATIC     ATOMS    <user>   **** ""
6 31 32 33 34 35 36
DONOR_HYDROGENS      STATIC     ATOMS    <user>   **** ""
2 20 30
ATOM$BLUE        STATIC     ATOMS    COLORGROUP SYSTEM
6 31 32 33 34 35 36
ATOM$RED        STATIC     ATOMS    COLORGROUP SYSTEM
2 20 30
