AV-unprocessed.smi:171|AV-procd|sdf|1418|dock7
  -GOLD-   2262019183D 1   1.00000     0.00000
 Structure written by MMmdl.
 56 59  0  0  0  0  0  0  0  0  1 V2000
  150.8779  139.8832  154.9790 C   0  0  0  0  0  0  0  0  0  0  0  0
  149.8903  138.7062  154.9131 C   0  0  0  0  0  0  0  0  0  0  0  0
  150.6376  137.4074  154.5715 C   0  0  0  0  0  0  0  0  0  0  0  0
  148.7281  138.9520  153.9136 C   0  0  0  0  0  0  0  0  0  0  0  0
  147.6909  140.0444  154.3073 C   0  0  2  0  0  0  0  0  0  0  0  0
  148.3350  141.4302  154.5408 C   0  0  0  0  0  0  0  0  0  0  0  0
  149.1524  141.8684  153.7335 O   0  0  0  0  0  0  0  0  0  0  0  0
  147.9661  142.1510  155.6137 N   0  0  0  0  0  0  0  0  0  0  0  0
  147.0118  141.7247  156.6333 C   0  0  0  0  0  0  0  0  0  0  0  0
  146.0746  140.6190  156.1284 C   0  0  0  0  0  0  0  0  0  0  0  0
  146.8452  139.6004  155.4282 N   0  0  0  0  0  0  0  0  0  0  0  0
  146.1528  138.4532  155.2504 C   0  0  0  0  0  0  0  0  0  0  0  0
  145.6742  137.7711  156.3231 N   0  0  0  0  0  0  0  0  0  0  0  0
  144.9702  136.6501  156.1369 C   0  0  0  0  0  0  0  0  0  0  0  0
  144.6358  136.0541  154.9895 N   0  0  0  0  0  0  0  0  0  0  0  0
  145.1206  136.7396  153.9141 C   0  0  0  0  0  0  0  0  0  0  0  0
  145.8929  137.9324  153.9572 C   0  0  0  0  0  0  0  0  0  0  0  0
  146.2166  138.3425  152.6708 N   0  0  0  0  0  0  0  0  0  0  0  0
  145.6557  137.4464  151.9059 C   0  0  0  0  0  0  0  0  0  0  0  0
  144.9672  136.4548  152.5686 N   0  0  0  0  0  0  0  0  0  0  0  0
  144.2384  135.3514  151.9653 C   0  0  0  0  0  0  0  0  0  0  0  0
  145.1590  134.3194  151.2713 C   0  0  1  0  0  0  0  0  0  0  0  0
  145.8160  134.9568  150.1876 O   0  0  0  0  0  0  0  0  0  0  0  0
  146.2145  133.7116  152.1833 C   0  0  0  0  0  0  0  0  0  0  0  0
  146.5380  132.3962  151.4853 C   0  0  0  0  0  0  0  0  0  0  0  0
  145.3046  131.9626  150.9256 O   0  0  0  0  0  0  0  0  0  0  0  0
  144.4043  133.0617  150.7910 C   0  0  2  0  0  0  0  0  0  0  0  0
  143.8062  133.1169  149.3764 C   0  0  0  0  0  0  0  0  0  0  0  0
  151.3060  140.0990  153.9997 H   0  0  0  0  0  0  0  0  0  0  0  0
  151.7020  139.6641  155.6585 H   0  0  0  0  0  0  0  0  0  0  0  0
  150.4009  140.7918  155.3433 H   0  0  0  0  0  0  0  0  0  0  0  0
  149.4828  138.5698  155.9142 H   0  0  0  0  0  0  0  0  0  0  0  0
  151.0811  137.4547  153.5765 H   0  0  0  0  0  0  0  0  0  0  0  0
  149.9662  136.5482  154.5988 H   0  0  0  0  0  0  0  0  0  0  0  0
  151.4387  137.2147  155.2857 H   0  0  0  0  0  0  0  0  0  0  0  0
  149.1365  139.1597  152.9236 H   0  0  0  0  0  0  0  0  0  0  0  0
  148.1816  138.0182  153.7757 H   0  0  0  0  0  0  0  0  0  0  0  0
  147.0380  140.1970  153.4464 H   0  0  0  0  0  0  0  0  0  0  0  0
  148.3916  143.0581  155.7393 H   0  0  0  0  0  0  0  0  0  0  0  0
  147.5814  141.3608  157.4893 H   0  0  0  0  0  0  0  0  0  0  0  0
  146.4368  142.5843  156.9777 H   0  0  0  0  0  0  0  0  0  0  0  0
  145.5262  140.1881  156.9681 H   0  0  0  0  0  0  0  0  0  0  0  0
  145.3349  141.0391  155.4446 H   0  0  0  0  0  0  0  0  0  0  0  0
  144.6196  136.1639  157.0353 H   0  0  0  0  0  0  0  0  0  0  0  0
  145.7201  137.4906  150.8283 H   0  0  0  0  0  0  0  0  0  0  0  0
  143.6549  134.8691  152.7505 H   0  0  0  0  0  0  0  0  0  0  0  0
  143.5168  135.7566  151.2547 H   0  0  0  0  0  0  0  0  0  0  0  0
  145.5782  134.5100  149.3895 H   0  0  0  0  0  0  0  0  0  0  0  0
  147.0900  134.3463  152.3293 H   0  0  0  0  0  0  0  0  0  0  0  0
  145.7860  133.5005  153.1640 H   0  0  0  0  0  0  0  0  0  0  0  0
  147.2543  132.5569  150.6785 H   0  0  0  0  0  0  0  0  0  0  0  0
  146.9536  131.6510  152.1640 H   0  0  0  0  0  0  0  0  0  0  0  0
  143.5948  132.8559  151.4926 H   0  0  0  0  0  0  0  0  0  0  0  0
  143.1235  133.9605  149.2727 H   0  0  0  0  0  0  0  0  0  0  0  0
  143.2445  132.2079  149.1607 H   0  0  0  0  0  0  0  0  0  0  0  0
  144.5794  133.2118  148.6138 H   0  0  0  0  0  0  0  0  0  0  0  0
  1  2  1  0  0  0  0
  1 29  1  0  0  0  0
  1 30  1  0  0  0  0
  1 31  1  0  0  0  0
  2  3  1  0  0  0  0
  2  4  1  0  0  0  0
  2 32  1  0  0  0  0
  3 33  1  0  0  0  0
  3 34  1  0  0  0  0
  3 35  1  0  0  0  0
  4  5  1  0  0  0  0
  4 36  1  0  0  0  0
  4 37  1  0  0  0  0
  5 11  1  0  0  0  0
  5  6  1  0  0  0  0
  5 38  1  0  0  0  0
  6  7  2  0  0  0  0
  6  8  1  0  0  0  0
  8  9  1  0  0  0  0
  8 39  1  0  0  0  0
  9 10  1  0  0  0  0
  9 40  1  0  0  0  0
  9 41  1  0  0  0  0
 10 11  1  0  0  0  0
 10 42  1  0  0  0  0
 10 43  1  0  0  0  0
 11 12  1  0  0  0  0
 12 17  1  0  0  0  0
 12 13  2  0  0  0  0
 13 14  1  0  0  0  0
 14 15  2  0  0  0  0
 14 44  1  0  0  0  0
 15 16  1  0  0  0  0
 16 20  1  0  0  0  0
 16 17  2  0  0  0  0
 17 18  1  0  0  0  0
 18 19  2  0  0  0  0
 19 20  1  0  0  0  0
 19 45  1  0  0  0  0
 20 21  1  0  0  0  0
 21 22  1  0  0  0  0
 21 46  1  0  0  0  0
 21 47  1  0  0  0  0
 22 27  1  0  0  0  0
 22 23  1  0  0  0  0
 22 24  1  0  0  0  0
 23 48  1  0  0  0  0
 24 25  1  0  0  0  0
 24 49  1  0  0  0  0
 24 50  1  0  0  0  0
 25 26  1  0  0  0  0
 25 51  1  0  0  0  0
 25 52  1  0  0  0  0
 26 27  1  0  0  0  0
 27 28  1  0  0  0  0
 27 53  1  0  0  0  0
 28 54  1  0  0  0  0
 28 55  1  0  0  0  0
 28 56  1  0  0  0  0
M  END
> <s_m_source_file>
AV-unprocessed.smi

> <i_m_source_file_index>
171

> <i_lp_mmshare_version>
43012

> <i_f3d_flags>
0

> <s_epik_input>
W0NIM11bQ0hdKFtDSDNdKVtDSDJdW0NAQEhdMUMoPU8pW05IXVtDSDJdW0NIMl1OMWMobltjSF1uMiljKGMyMyluW2NIXW4zW0NIMl1bQ0BAXTQoW09IXSlbQ0gyXVtDSDJdT1tDQEhdNFtDSDNd

> <s_epik_cmdline>
J2VwaWtfcHl0aG9uJywgJy1waCcsICc3LjAnLCAnLXRuJywgJzgnLCAnLW1hJywgJzIwMCcsICctbWV0YWxfYmluZGluZycsICctaW1hZScsICc8aW5maWxlLm1hZT4nLCAnLW9tYWUnLCAnPG91dGZpbGUubWFlPic=

> <r_lp_tautomer_probability>
1

> <r_epik_Ionization_Penalty>
0.000670584

> <r_epik_Ionization_Penalty_Charging>
0

> <r_epik_Ionization_Penalty_Neutral>
0.000670584

> <r_epik_State_Penalty>
0.000304767

> <r_epik_Charging_Adjusted_Penalty>
0.000304767

> <i_epik_Tot_Q>
0

> <i_epik_Tot_abs_Q>
0

> <r_epik_Metal_State_Penalty>
-0

> <b_epik_Metal_Only>
0

> <s_lp_Force_Field>
OPLS_2005

> <r_lp_Energy>
41.3949

> <b_lp_Chiralities_Consistent>
1

> <s_lp_Variant>
AV-unprocessed.smi:171-5

> <Gold.Version>
5.8.1

> <Gold.Id.Protein>
6NUR|6NUR_protein|mol2

> <Gold.PLP.Fitness>
40.4885

> <Gold.PLP.PLP>
-32.6433

> <Gold.PLP.part.hbond>
-3.7196

> <Gold.PLP.part.metal>
0.0000

> <Gold.PLP.part.buried>
-0.5807

> <Gold.PLP.part.nonpolar>
-27.9993

> <Gold.PLP.part.repulsive>
0.7333

> <Gold.PLP.ligand.clash>
0.0000

> <Gold.PLP.ligand.torsion>
0.4589

> <Gold.PLP.Chemscore.Hbond>
2.1840

> <Gold.PLP.Chemscore.CHOScore>
0.5920

> <Gold.PLP.Chemscore.Metal>
0.0000

> <Gold.Chemscore.Hbonds>
donor molecule, donor type, donor heavy atom, donor atom, acceptor molecule, acceptor atom, score
      L1  H     8    39       P1  8028  1.00
      L1  H    23    48       P1  7921  0.59
      P1  H  8011  8017       L1     7  0.56
      L1  C    19    45       P1 10171  0.68

> <Gold.PLP.Chemscore.Internal.Correction>
0.4351

> <Gold.Rescore>
     Score         DG    S(hbond)    S(metal)    S(lipo)     H(rot)  DE(clash)    DE(int)     intcor
      9.96     -13.86       2.16        0.00      66.95       2.61       0.38       3.51       ----

> <Gold.Chemscore.Fitness>
9.9649

> <Gold.Chemscore.DG>
-13.8580

> <Gold.Chemscore.ZeroCoef>
-5.4800

> <Gold.Chemscore.Hbond>
2.1617

> <Gold.Chemscore.Metal>
0.0000

> <Gold.Chemscore.Lipo>
66.9466

> <Gold.Chemscore.Internal_Hbond>
0.0000

> <Gold.Chemscore.DEClash>
0.3814

> <Gold.Chemscore.DEInternal>
3.5117

> <Gold.Chemscore.Rot>
2.6074

> <Gold.Chemscore.Internal.Correction>
   9.000000E+99

> <Gold.Chemscore.Hbonds>
donor molecule, donor type, donor heavy atom, donor atom, acceptor molecule, acceptor atom, score
      L1  H     8    39       P1  8028  0.97
      L1  H    23    48       P1  7921  0.56
      P1  H  8011  8017       L1     7  0.56

> <Gold.Chemscore.Hbond.Weighted>
-7.2201

> <Gold.Chemscore.Metal.Weighted>
-0.0000

> <Gold.Chemscore.Lipo.Weighted>
-7.8327

> <Gold.Chemscore.Internal_Hbond.Weighted>
0.0000

> <Gold.Chemscore.DEClash.Weighted>
0.3814

> <Gold.Chemscore.DEInternal.Weighted>
3.5117

> <Gold.Chemscore.Rot.Weighted>
6.6748

> <Gold.Chemscore.Internal.Correction.Weighted>
   9.000000E+99

> <Gold.Protein.RotatedTorsions>
[ 6907 6896 6895 6894 ] final  140.77 input  -60.11 | X-H torsion
[ 7974 7965 7964 7962 ] final -108.72 input  175.53 | X-H torsion
[ 8008 7997 7996 7995 ] final -113.01 input   59.86 | X-H torsion
[ 10167 10162 10161 10158 ] final -144.37 input  -65.29 | X-H torsion
[ 10718 10713 10712 10709 ] final    2.41 input   66.30 | X-H torsion
[ 10763 10752 10751 10750 ] final  122.82 input  -60.55 | X-H torsion
[ 11005 11000 10999 10996 ] final -124.05 input  -57.11 | X-H torsion

> <Gold.Protein.ActiveResidues>
 VAL166  LYS551  ARG553  GLY616  TRP617  ASP618  TYR619  PRO620  LYS621  CYS622 
 ASP623  PHE694  ASN695  SER759  ASP760  ASP761  ALA762  ILE779  LEU786  VAL792 
 PHE793  MET794  SER795  GLU796  ALA797  LYS798  CYS799  TRP800  GLU811  SER814 

> <Gold.Protein.RotatedAtoms>
  152.2390  133.5119  159.5258 H   0  0  0  0  0  0  0  0  0  0  0  0  # atno 6907 bound_to 6896
  150.7059  134.1115  159.4011 H   0  0  0  0  0  0  0  0  0  0  0  0  # atno 6908 bound_to 6896
  151.9036  135.0368  160.0559 H   0  0  0  0  0  0  0  0  0  0  0  0  # atno 6909 bound_to 6896
  145.1893  140.9007  143.3434 H   0  0  0  0  0  0  0  0  0  0  0  0  # atno 7974 bound_to 7965
  155.0141  140.0393  157.2411 H   0  0  0  0  0  0  0  0  0  0  0  0  # atno 8008 bound_to 7997
  154.7434  140.2753  155.6330 H   0  0  0  0  0  0  0  0  0  0  0  0  # atno 8009 bound_to 7997
  156.2869  140.2661  156.2168 H   0  0  0  0  0  0  0  0  0  0  0  0  # atno 8010 bound_to 7997
  139.7905  143.7973  152.2649 H   0  0  0  0  0  0  0  0  0  0  0  0  # atno 10167 bound_to 10162
  156.8626  130.5592  149.5662 H   0  0  0  0  0  0  0  0  0  0  0  0  # atno 10718 bound_to 10713
  153.6358  135.3388  155.3056 H   0  0  0  0  0  0  0  0  0  0  0  0  # atno 10763 bound_to 10752
  154.8570  135.4306  154.2057 H   0  0  0  0  0  0  0  0  0  0  0  0  # atno 10764 bound_to 10752
  153.2964  135.7021  153.7318 H   0  0  0  0  0  0  0  0  0  0  0  0  # atno 10765 bound_to 10752
  140.9871  134.0591  157.3698 H   0  0  0  0  0  0  0  0  0  0  0  0  # atno 11005 bound_to 11000
  145.0057  139.3557  143.6145 LP  0  0  0  0  0  0  0  0  0  0  0  0  # atno 17320 bound_to 7965
  146.3439  139.9298  142.8755 LP  0  0  0  0  0  0  0  0  0  0  0  0  # atno 17321 bound_to 7965
  139.8062  144.7354  150.9758 LP  0  0  0  0  0  0  0  0  0  0  0  0  # atno 17342 bound_to 10162
  140.7820  143.4295  151.0716 LP  0  0  0  0  0  0  0  0  0  0  0  0  # atno 17343 bound_to 10162
  156.0768  130.5788  150.9489 LP  0  0  0  0  0  0  0  0  0  0  0  0  # atno 17370 bound_to 10713
  157.6241  131.0927  150.8566 LP  0  0  0  0  0  0  0  0  0  0  0  0  # atno 17371 bound_to 10713
  139.8975  135.0151  156.7106 LP  0  0  0  0  0  0  0  0  0  0  0  0  # atno 17394 bound_to 11000
  140.7097  133.9234  155.8076 LP  0  0  0  0  0  0  0  0  0  0  0  0  # atno 17395 bound_to 11000

$$$$
