AV-unprocessed.smi:3002|AV-procd|sdf|11435|dock5
  -GOLD-   2272016363D 1   1.00000     0.00000
 Structure written by MMmdl.
 34 35  0  0  0  0  0  0  0  0  1 V2000
  146.5411  133.4463  153.8890 C   0  0  0  0  0  0  0  0  0  0  0  0
  146.3897  134.3008  152.6137 C   0  0  2  0  0  0  0  0  0  0  0  0
  145.7810  135.6845  152.8888 C   0  0  0  0  0  0  0  0  0  0  0  0
  144.6092  135.7973  153.2507 O   0  0  0  0  0  0  0  0  0  0  0  0
  146.5895  136.7362  152.6799 N   0  0  0  0  0  0  0  0  0  0  0  0
  146.1911  138.1381  152.7466 C   0  0  0  0  0  0  0  0  0  0  0  0
  147.3958  139.0568  153.0315 C   0  0  1  0  0  0  0  0  0  0  0  0
  147.0204  140.5389  153.2503 C   0  0  0  0  0  0  0  0  0  0  0  0
  148.2415  141.2804  153.8020 C   0  0  0  0  0  0  0  0  0  0  0  0
  149.1339  140.0636  154.8387 S   0  0  0  0  0  0  0  0  0  0  0  0
  150.5281  139.9749  154.3788 O   0  0  0  0  0  0  0  0  0  0  0  0
  148.8173  140.2981  156.2556 O   0  0  0  0  0  0  0  0  0  0  0  0
  148.2024  138.5963  154.2555 C   0  0  0  0  0  0  0  0  0  0  0  0
  145.6165  133.6183  151.5825 N   0  0  0  0  0  0  0  0  0  0  0  0
  145.9009  132.5152  150.8864 C   0  0  0  0  0  0  0  0  0  0  0  0
  144.9918  132.2046  149.9730 N   0  0  0  0  0  0  0  0  0  0  0  0
  144.1147  133.2340  150.1652 C   0  0  0  0  0  0  0  0  0  0  0  0
  144.4462  134.1149  151.1088 N   0  0  0  0  0  0  0  0  0  0  0  0
  147.1680  133.9484  154.6266 H   0  0  0  0  0  0  0  0  0  0  0  0
  147.0107  132.4891  153.6608 H   0  0  0  0  0  0  0  0  0  0  0  0
  145.5797  133.2374  154.3601 H   0  0  0  0  0  0  0  0  0  0  0  0
  147.3914  134.4615  152.2110 H   0  0  0  0  0  0  0  0  0  0  0  0
  147.5397  136.5499  152.3934 H   0  0  0  0  0  0  0  0  0  0  0  0
  145.6814  138.4469  151.8322 H   0  0  0  0  0  0  0  0  0  0  0  0
  145.4597  138.2364  153.5492 H   0  0  0  0  0  0  0  0  0  0  0  0
  148.0663  139.0194  152.1713 H   0  0  0  0  0  0  0  0  0  0  0  0
  146.6610  141.0105  152.3350 H   0  0  0  0  0  0  0  0  0  0  0  0
  146.2103  140.5991  153.9786 H   0  0  0  0  0  0  0  0  0  0  0  0
  148.9055  141.5866  152.9932 H   0  0  0  0  0  0  0  0  0  0  0  0
  147.9780  142.1596  154.3905 H   0  0  0  0  0  0  0  0  0  0  0  0
  147.5428  138.2808  155.0644 H   0  0  0  0  0  0  0  0  0  0  0  0
  148.8894  137.7805  154.0306 H   0  0  0  0  0  0  0  0  0  0  0  0
  146.7960  131.9319  151.0448 H   0  0  0  0  0  0  0  0  0  0  0  0
  143.2088  133.3417  149.5871 H   0  0  0  0  0  0  0  0  0  0  0  0
  1  2  1  0  0  0  0
  1 19  1  0  0  0  0
  1 20  1  0  0  0  0
  1 21  1  0  0  0  0
  2  3  1  0  0  0  0
  2 14  1  0  0  0  0
  2 22  1  0  0  0  0
  3  4  2  0  0  0  0
  3  5  1  0  0  0  0
  5  6  1  0  0  0  0
  5 23  1  0  0  0  0
  6  7  1  0  0  0  0
  6 24  1  0  0  0  0
  6 25  1  0  0  0  0
  7 13  1  0  0  0  0
  7  8  1  0  0  0  0
  7 26  1  0  0  0  0
  8  9  1  0  0  0  0
  8 27  1  0  0  0  0
  8 28  1  0  0  0  0
  9 10  1  0  0  0  0
  9 29  1  0  0  0  0
  9 30  1  0  0  0  0
 10 11  2  0  0  0  0
 10 12  2  0  0  0  0
 10 13  1  0  0  0  0
 13 31  1  0  0  0  0
 13 32  1  0  0  0  0
 14 18  1  0  0  0  0
 14 15  1  0  0  0  0
 15 16  2  0  0  0  0
 15 33  1  0  0  0  0
 16 17  1  0  0  0  0
 17 18  2  0  0  0  0
 17 34  1  0  0  0  0
M  END
> <s_m_source_file>
AV-unprocessed.smi

> <i_m_source_file_index>
3002

> <i_lp_mmshare_version>
43012

> <i_f3d_flags>
0

> <s_epik_input>
bjFbY0hdbltjSF1uMVtDQEhdKFtDSDNdKUMoPU8pW05IXVtDSDJdW0NAQEhdKFtDSDJdMilbQ0gyXVtDSDJdUzIoPU8pPU8=

> <s_epik_cmdline>
J2VwaWtfcHl0aG9uJywgJy1waCcsICc3LjAnLCAnLXRuJywgJzgnLCAnLW1hJywgJzIwMCcsICctbWV0YWxfYmluZGluZycsICctaW1hZScsICc8aW5maWxlLm1hZT4nLCAnLW9tYWUnLCAnPG91dGZpbGUubWFlPic=

> <r_lp_tautomer_probability>
1

> <r_epik_Ionization_Penalty>
1.1748e-05

> <r_epik_Ionization_Penalty_Charging>
0

> <r_epik_Ionization_Penalty_Neutral>
1.1748e-05

> <r_epik_State_Penalty>
-0

> <r_epik_Charging_Adjusted_Penalty>
0

> <i_epik_Tot_Q>
0

> <i_epik_Tot_abs_Q>
0

> <r_epik_Metal_State_Penalty>
-0

> <b_epik_Metal_Only>
0

> <s_lp_Force_Field>
OPLS_2005

> <r_lp_Energy>
9.21474

> <b_lp_Chiralities_Consistent>
1

> <s_lp_Variant>
AV-unprocessed.smi:3002-3

> <Gold.Version>
5.8.1

> <Gold.Id.Protein>
6NUR|6NUR_protein|mol2

> <Gold.PLP.Fitness>
37.2558

> <Gold.PLP.PLP>
-25.8875

> <Gold.PLP.part.hbond>
-2.0000

> <Gold.PLP.part.metal>
0.0000

> <Gold.PLP.part.buried>
-3.5225

> <Gold.PLP.part.nonpolar>
-21.4592

> <Gold.PLP.part.repulsive>
0.5299

> <Gold.PLP.ligand.clash>
0.0000

> <Gold.PLP.ligand.torsion>
0.3586

> <Gold.PLP.Chemscore.Hbond>
1.9913

> <Gold.PLP.Chemscore.CHOScore>
2.0000

> <Gold.PLP.Chemscore.Metal>
0.0000

> <Gold.Chemscore.Hbonds>
donor molecule, donor type, donor heavy atom, donor atom, acceptor molecule, acceptor atom, score
      L1  H     5    23       P1  7948  1.00
      P1  H  7989  7998       L1    11  1.00
      L1  C    15    33       P1 10747  0.95
      L1  C    17    34       P1 10186  1.00

> <Gold.PLP.Chemscore.Internal.Correction>
0.1116

> <Gold.Rescore>
     Score         DG    S(hbond)    S(metal)    S(lipo)     H(rot)  DE(clash)    DE(int)     intcor
      9.12     -10.82       1.99        0.00      41.23       2.39       0.10       1.59       ----

> <Gold.Chemscore.Fitness>
9.1206

> <Gold.Chemscore.DG>
-10.8166

> <Gold.Chemscore.ZeroCoef>
-5.4800

> <Gold.Chemscore.Hbond>
1.9890

> <Gold.Chemscore.Metal>
0.0000

> <Gold.Chemscore.Lipo>
41.2257

> <Gold.Chemscore.Internal_Hbond>
0.0000

> <Gold.Chemscore.DEClash>
0.1038

> <Gold.Chemscore.DEInternal>
1.5921

> <Gold.Chemscore.Rot>
2.3946

> <Gold.Chemscore.Internal.Correction>
   9.000000E+99

> <Gold.Chemscore.Hbonds>
donor molecule, donor type, donor heavy atom, donor atom, acceptor molecule, acceptor atom, score
      L1  H     5    23       P1  7948  0.93
      P1  H  7989  7998       L1    11  1.00

> <Gold.Chemscore.Hbond.Weighted>
-6.6433

> <Gold.Chemscore.Metal.Weighted>
-0.0000

> <Gold.Chemscore.Lipo.Weighted>
-4.8234

> <Gold.Chemscore.Internal_Hbond.Weighted>
0.0000

> <Gold.Chemscore.DEClash.Weighted>
0.1038

> <Gold.Chemscore.DEInternal.Weighted>
1.5921

> <Gold.Chemscore.Rot.Weighted>
6.1301

> <Gold.Chemscore.Internal.Correction.Weighted>
   9.000000E+99

> <Gold.Protein.RotatedTorsions>
[ 6907 6896 6895 6894 ] final  -24.99 input  -60.11 | X-H torsion
[ 7974 7965 7964 7962 ] final  132.15 input  175.53 | X-H torsion
[ 8008 7997 7996 7995 ] final  -15.36 input   59.86 | X-H torsion
[ 10167 10162 10161 10158 ] final -125.28 input  -65.29 | X-H torsion
[ 10718 10713 10712 10709 ] final  -60.27 input   66.30 | X-H torsion
[ 10763 10752 10751 10750 ] final   97.12 input  -60.55 | X-H torsion
[ 11005 11000 10999 10996 ] final    3.51 input  -57.11 | X-H torsion

> <Gold.Protein.ActiveResidues>
 VAL166  LYS551  ARG553  GLY616  TRP617  ASP618  TYR619  PRO620  LYS621  CYS622 
 ASP623  PHE694  ASN695  SER759  ASP760  ASP761  ALA762  ILE779  LEU786  VAL792 
 PHE793  MET794  SER795  GLU796  ALA797  LYS798  CYS799  TRP800  GLU811  SER814 

> <Gold.Protein.RotatedAtoms>
  151.1816  135.0363  159.8794 H   0  0  0  0  0  0  0  0  0  0  0  0  # atno 6907 bound_to 6896
  152.5444  134.1056  159.8346 H   0  0  0  0  0  0  0  0  0  0  0  0  # atno 6908 bound_to 6896
  151.1174  133.5082  159.2635 H   0  0  0  0  0  0  0  0  0  0  0  0  # atno 6909 bound_to 6896
  144.9999  139.4322  143.5297 H   0  0  0  0  0  0  0  0  0  0  0  0  # atno 7974 bound_to 7965
  154.5136  140.2198  155.9108 H   0  0  0  0  0  0  0  0  0  0  0  0  # atno 8008 bound_to 7997
  156.1581  140.3148  155.8727 H   0  0  0  0  0  0  0  0  0  0  0  0  # atno 8009 bound_to 7997
  155.3805  140.0472  157.3034 H   0  0  0  0  0  0  0  0  0  0  0  0  # atno 8010 bound_to 7997
  139.9838  143.5714  152.2368 H   0  0  0  0  0  0  0  0  0  0  0  0  # atno 10167 bound_to 10162
  156.1003  130.4187  150.0830 H   0  0  0  0  0  0  0  0  0  0  0  0  # atno 10718 bound_to 10713
  153.2731  135.4194  155.1006 H   0  0  0  0  0  0  0  0  0  0  0  0  # atno 10763 bound_to 10752
  154.8463  135.3477  154.6217 H   0  0  0  0  0  0  0  0  0  0  0  0  # atno 10764 bound_to 10752
  153.6637  135.7047  153.5227 H   0  0  0  0  0  0  0  0  0  0  0  0  # atno 10765 bound_to 10752
  140.5923  133.9912  155.8094 H   0  0  0  0  0  0  0  0  0  0  0  0  # atno 11005 bound_to 11000
  146.3449  139.9381  142.8744 LP  0  0  0  0  0  0  0  0  0  0  0  0  # atno 17320 bound_to 7965
  145.2168  140.9918  143.4069 LP  0  0  0  0  0  0  0  0  0  0  0  0  # atno 17321 bound_to 7965
  139.6390  144.7653  151.2378 LP  0  0  0  0  0  0  0  0  0  0  0  0  # atno 17342 bound_to 10162
  140.7479  143.6349  150.8388 LP  0  0  0  0  0  0  0  0  0  0  0  0  # atno 17343 bound_to 10162
  156.8819  130.9559  151.3598 LP  0  0  0  0  0  0  0  0  0  0  0  0  # atno 17370 bound_to 10713
  157.6171  130.8627  149.9047 LP  0  0  0  0  0  0  0  0  0  0  0  0  # atno 17371 bound_to 10713
  141.0927  133.9892  157.3211 LP  0  0  0  0  0  0  0  0  0  0  0  0  # atno 17394 bound_to 11000
  139.9268  135.0201  156.8264 LP  0  0  0  0  0  0  0  0  0  0  0  0  # atno 17395 bound_to 11000

$$$$
