AV-unprocessed.smi:1251|AV-procd|sdf|5262|dock6
  -GOLD-   22720 4373D 1   1.00000     0.00000
 Structure written by MMmdl.
 38 39  0  0  0  0  0  0  0  0  2 V2000
  146.9035  142.1996  154.2097 C   0  0  0  0  0  0  0  0  0  0  0  0
  147.8561  141.0110  154.0424 C   0  0  0  0  0  0  0  0  0  0  0  0
  149.0584  141.0806  154.9942 C   0  0  0  0  0  0  0  0  0  0  0  0
  149.9854  139.9228  154.8305 C   0  0  0  0  0  0  0  0  0  0  0  0
  151.3142  140.0549  154.8179 N   0  0  0  0  0  0  0  0  0  0  0  0
  151.9596  138.8343  154.6841 N   0  0  0  0  0  0  0  0  0  0  0  0
  151.1133  137.7978  154.6049 C   0  0  0  0  0  0  0  0  0  0  0  0
  151.5380  136.5297  154.4795 N   0  5  0  0  0  0  0  0  0  0  0  0
  150.8713  135.5287  155.0982 C   0  0  0  0  0  0  0  0  0  0  0  0
  151.1762  135.0016  156.1705 O   0  0  0  0  0  0  0  0  0  0  0  0
  149.7849  135.1138  154.4316 N   0  0  0  0  0  0  0  0  0  0  0  0
  148.8542  134.0672  154.8527 C   0  0  2  0  0  0  0  0  0  0  0  0
  149.6197  132.7904  155.2361 C   0  0  0  0  0  0  0  0  0  0  0  0
  147.8042  133.8087  153.7528 C   0  0  1  0  0  0  0  0  0  0  0  0
  148.3185  132.9798  152.5620 C   0  0  0  0  0  0  0  0  0  0  0  0
  147.5167  131.6952  152.6370 C   0  0  0  0  0  0  0  0  0  0  0  0
  146.2361  132.1586  153.3144 C   0  0  0  0  0  0  0  0  0  0  0  0
  146.7027  133.0761  154.2899 O   0  0  0  0  0  0  0  0  0  0  0  0
  149.4166  138.2663  154.7121 S   0  0  0  0  0  0  0  0  0  0  0  0
  146.0591  142.1192  153.5249 H   0  0  0  0  0  0  0  0  0  0  0  0
  147.4107  143.1424  154.0036 H   0  0  0  0  0  0  0  0  0  0  0  0
  146.5061  142.2461  155.2239 H   0  0  0  0  0  0  0  0  0  0  0  0
  147.3078  140.0839  154.2138 H   0  0  0  0  0  0  0  0  0  0  0  0
  148.2081  140.9752  153.0108 H   0  0  0  0  0  0  0  0  0  0  0  0
  149.6192  141.9997  154.8226 H   0  0  0  0  0  0  0  0  0  0  0  0
  148.7166  141.1129  156.0295 H   0  0  0  0  0  0  0  0  0  0  0  0
  149.5781  135.5736  153.5569 H   0  0  0  0  0  0  0  0  0  0  0  0
  148.3138  134.4092  155.7371 H   0  0  0  0  0  0  0  0  0  0  0  0
  148.9363  132.0090  155.5685 H   0  0  0  0  0  0  0  0  0  0  0  0
  150.3207  132.9808  156.0494 H   0  0  0  0  0  0  0  0  0  0  0  0
  150.1891  132.3991  154.3925 H   0  0  0  0  0  0  0  0  0  0  0  0
  147.4284  134.7620  153.3782 H   0  0  0  0  0  0  0  0  0  0  0  0
  148.0988  133.5006  151.6293 H   0  0  0  0  0  0  0  0  0  0  0  0
  149.3934  132.7965  152.5894 H   0  0  0  0  0  0  0  0  0  0  0  0
  147.3452  131.2385  151.6621 H   0  0  0  0  0  0  0  0  0  0  0  0
  148.0311  130.9708  153.2698 H   0  0  0  0  0  0  0  0  0  0  0  0
  145.5857  132.6757  152.6073 H   0  0  0  0  0  0  0  0  0  0  0  0
  145.6761  131.3402  153.7671 H   0  0  0  0  0  0  0  0  0  0  0  0
  1  2  1  0  0  0  0
  1 20  1  0  0  0  0
  1 21  1  0  0  0  0
  1 22  1  0  0  0  0
  2  3  1  0  0  0  0
  2 23  1  0  0  0  0
  2 24  1  0  0  0  0
  3  4  1  0  0  0  0
  3 25  1  0  0  0  0
  3 26  1  0  0  0  0
  4 19  1  0  0  0  0
  4  5  2  0  0  0  0
  5  6  1  0  0  0  0
  6  7  2  0  0  0  0
  7  8  1  0  0  0  0
  7 19  1  0  0  0  0
  8  9  1  0  0  0  0
  9 10  2  0  0  0  0
  9 11  1  0  0  0  0
 11 12  1  0  0  0  0
 11 27  1  0  0  0  0
 12 13  1  0  0  0  0
 12 14  1  0  0  0  0
 12 28  1  0  0  0  0
 13 29  1  0  0  0  0
 13 30  1  0  0  0  0
 13 31  1  0  0  0  0
 14 18  1  0  0  0  0
 14 15  1  0  0  0  0
 14 32  1  0  0  0  0
 15 16  1  0  0  0  0
 15 33  1  0  0  0  0
 15 34  1  0  0  0  0
 16 17  1  0  0  0  0
 16 35  1  0  0  0  0
 16 36  1  0  0  0  0
 17 18  1  0  0  0  0
 17 37  1  0  0  0  0
 17 38  1  0  0  0  0
M  CHG  1   8  -1
M  END
> <s_m_source_file>
AV-unprocessed.smi

> <i_m_source_file_index>
1251

> <i_lp_mmshare_version>
43012

> <i_f3d_flags>
0

> <s_epik_input>
W0NIM11bQ0gyXVtDSDJdYzFubmMoczEpW05IXUMoPU8pW05IXVtDQEhdKFtDSDNdKVtDQEBIXTJbQ0gyXVtDSDJdW0NIMl1PMg==

> <s_epik_cmdline>
J2VwaWtfcHl0aG9uJywgJy1waCcsICc3LjAnLCAnLXRuJywgJzgnLCAnLW1hJywgJzIwMCcsICctbWV0YWxfYmluZGluZycsICctaW1hZScsICc8aW5maWxlLm1hZT4nLCAnLW9tYWUnLCAnPG91dGZpbGUubWFlPic=

> <r_lp_tautomer_probability>
1

> <r_epik_Ionization_Penalty>
4.22551

> <r_epik_Ionization_Penalty_Charging>
4.21437

> <r_epik_Ionization_Penalty_Neutral>
0.0111434

> <r_epik_State_Penalty>
4.21389

> <r_epik_Charging_Adjusted_Penalty>
8.42826

> <i_epik_Tot_Q>
-1

> <i_epik_Tot_abs_Q>
1

> <r_epik_Metal_State_Penalty>
0.69377

> <b_epik_Metal_Only>
1

> <s_lp_Force_Field>
OPLS_2005

> <r_lp_Energy>
12.7313

> <b_lp_Chiralities_Consistent>
1

> <s_lp_Variant>
AV-unprocessed.smi:1251-7

> <Gold.Version>
5.8.1

> <Gold.Id.Protein>
6NUR|6NUR_protein|mol2

> <Gold.PLP.Fitness>
41.2375

> <Gold.PLP.PLP>
-32.0292

> <Gold.PLP.part.hbond>
-3.0559

> <Gold.PLP.part.metal>
0.0000

> <Gold.PLP.part.buried>
-4.2143

> <Gold.PLP.part.nonpolar>
-25.6393

> <Gold.PLP.part.repulsive>
0.4022

> <Gold.PLP.ligand.clash>
0.0000

> <Gold.PLP.ligand.torsion>
1.4526

> <Gold.PLP.Chemscore.Hbond>
4.0000

> <Gold.PLP.Chemscore.CHOScore>
0.0000

> <Gold.PLP.Chemscore.Metal>
0.0000

> <Gold.Chemscore.Hbonds>
donor molecule, donor type, donor heavy atom, donor atom, acceptor molecule, acceptor atom, score
      L1  H    11    27       P1  7948  0.85
      P1  H  7989  7998       L1     5  1.00
      P1  H 10752 10765       L1     8  1.30

> <Gold.PLP.Chemscore.Internal.Correction>
0.1135

> <Gold.Rescore>
     Score         DG    S(hbond)    S(metal)    S(lipo)     H(rot)  DE(clash)    DE(int)     intcor
     13.04     -15.58       2.12        0.00      59.59       1.55       0.11       2.43       ----

> <Gold.Chemscore.Fitness>
13.0411

> <Gold.Chemscore.DG>
-15.5848

> <Gold.Chemscore.ZeroCoef>
-5.4800

> <Gold.Chemscore.Hbond>
2.1235

> <Gold.Chemscore.Metal>
0.0000

> <Gold.Chemscore.Lipo>
59.5921

> <Gold.Chemscore.Internal_Hbond>
0.0000

> <Gold.Chemscore.DEClash>
0.1112

> <Gold.Chemscore.DEInternal>
2.4325

> <Gold.Chemscore.Rot>
1.5469

> <Gold.Chemscore.Internal.Correction>
   9.000000E+99

> <Gold.Chemscore.Hbonds>
donor molecule, donor type, donor heavy atom, donor atom, acceptor molecule, acceptor atom, score
      L1  H    11    27       P1  7948  0.15
      P1  H  7989  7998       L1     5  0.30
      P1  H 10752 10765       L1     8  0.06

> <Gold.Chemscore.Hbond.Weighted>
-7.0925

> <Gold.Chemscore.Metal.Weighted>
-0.0000

> <Gold.Chemscore.Lipo.Weighted>
-6.9723

> <Gold.Chemscore.Internal_Hbond.Weighted>
0.0000

> <Gold.Chemscore.DEClash.Weighted>
0.1112

> <Gold.Chemscore.DEInternal.Weighted>
2.4325

> <Gold.Chemscore.Rot.Weighted>
3.9600

> <Gold.Chemscore.Internal.Correction.Weighted>
   9.000000E+99

> <Gold.Protein.RotatedTorsions>
[ 6907 6896 6895 6894 ] final  -10.20 input  -60.11 | X-H torsion
[ 7974 7965 7964 7962 ] final  -66.45 input  175.53 | X-H torsion
[ 8008 7997 7996 7995 ] final  102.65 input   59.86 | X-H torsion
[ 10167 10162 10161 10158 ] final  103.40 input  -65.29 | X-H torsion
[ 10718 10713 10712 10709 ] final  151.34 input   66.30 | X-H torsion
[ 10763 10752 10751 10750 ] final  167.51 input  -60.55 | X-H torsion
[ 11005 11000 10999 10996 ] final -126.91 input  -57.11 | X-H torsion

> <Gold.Protein.ActiveResidues>
 VAL166  LYS551  ARG553  GLY616  TRP617  ASP618  TYR619  PRO620  LYS621  CYS622 
 ASP623  PHE694  ASN695  SER759  ASP760  ASP761  ALA762  ILE779  LEU786  VAL792 
 PHE793  MET794  SER795  GLU796  ALA797  LYS798  CYS799  TRP800  GLU811  SER814 

> <Gold.Protein.RotatedAtoms>
  151.4057  135.0977  159.9569 H   0  0  0  0  0  0  0  0  0  0  0  0  # atno 6907 bound_to 6896
  152.5036  133.8846  159.7374 H   0  0  0  0  0  0  0  0  0  0  0  0  # atno 6908 bound_to 6896
  150.9329  133.6688  159.2835 H   0  0  0  0  0  0  0  0  0  0  0  0  # atno 6909 bound_to 6896
  145.7416  140.8951  143.0527 H   0  0  0  0  0  0  0  0  0  0  0  0  # atno 7974 bound_to 7965
  156.1412  140.3178  155.8499 H   0  0  0  0  0  0  0  0  0  0  0  0  # atno 8008 bound_to 7997
  155.4150  140.0508  157.3046 H   0  0  0  0  0  0  0  0  0  0  0  0  # atno 8009 bound_to 7997
  154.4978  140.2117  155.9422 H   0  0  0  0  0  0  0  0  0  0  0  0  # atno 8010 bound_to 7997
  139.7266  144.7046  151.0787 H   0  0  0  0  0  0  0  0  0  0  0  0  # atno 10167 bound_to 10162
  157.2720  131.0819  151.1593 H   0  0  0  0  0  0  0  0  0  0  0  0  # atno 10718 bound_to 10713
  154.3549  135.2753  155.2352 H   0  0  0  0  0  0  0  0  0  0  0  0  # atno 10763 bound_to 10752
  154.4565  135.5918  153.6230 H   0  0  0  0  0  0  0  0  0  0  0  0  # atno 10764 bound_to 10752
  152.9847  135.6054  154.3763 H   0  0  0  0  0  0  0  0  0  0  0  0  # atno 10765 bound_to 10752
  140.9643  134.0894  157.3936 H   0  0  0  0  0  0  0  0  0  0  0  0  # atno 11005 bound_to 11000
  144.6869  139.9468  143.7477 LP  0  0  0  0  0  0  0  0  0  0  0  0  # atno 17320 bound_to 7965
  146.0442  139.3450  143.0679 LP  0  0  0  0  0  0  0  0  0  0  0  0  # atno 17321 bound_to 7965
  140.7764  143.5096  150.9669 LP  0  0  0  0  0  0  0  0  0  0  0  0  # atno 17342 bound_to 10162
  139.8784  143.7103  152.3159 LP  0  0  0  0  0  0  0  0  0  0  0  0  # atno 17343 bound_to 10162
  157.3061  130.6867  149.6190 LP  0  0  0  0  0  0  0  0  0  0  0  0  # atno 17370 bound_to 10713
  155.9663  130.4377  150.5188 LP  0  0  0  0  0  0  0  0  0  0  0  0  # atno 17371 bound_to 10713
  139.8889  135.0101  156.6646 LP  0  0  0  0  0  0  0  0  0  0  0  0  # atno 17394 bound_to 11000
  140.7422  133.8968  155.8286 LP  0  0  0  0  0  0  0  0  0  0  0  0  # atno 17395 bound_to 11000

$$$$
