AV-unprocessed.smi:203|AV-procd|sdf|1593|dock9
  -GOLD-   2262019493D 1   1.00000     0.00000
 Structure written by MMmdl.
 57 61  0  0  0  0  0  0  0  0  1 V2000
  147.7593  141.1883  157.4955 O   0  0  0  0  0  0  0  0  0  0  0  0
  148.9538  141.4764  157.5023 C   0  0  0  0  0  0  0  0  0  0  0  0
  150.0052  140.6759  158.2528 C   0  0  0  0  0  0  0  0  0  0  0  0
  151.3224  141.2520  157.7012 C   0  0  2  0  0  0  0  0  0  0  0  0
  152.5479  141.2506  158.6674 C   0  0  1  0  0  0  0  0  0  0  0  0
  152.4093  142.2684  159.8311 C   0  0  0  0  0  0  0  0  0  0  0  0
  153.6286  142.2392  160.7625 C   0  0  0  0  0  0  0  0  0  0  0  0
  153.8521  140.8172  161.2858 C   0  0  0  0  0  0  0  0  0  0  0  0
  153.9944  139.8366  160.1151 C   0  0  0  0  0  0  0  0  0  0  0  0
  152.8459  139.9127  159.2122 N   0  0  0  0  0  0  0  0  0  0  0  0
  152.8866  138.8865  158.3321 C   0  0  0  0  0  0  0  0  0  0  0  0
  153.9854  138.7920  157.5438 N   0  0  0  0  0  0  0  0  0  0  0  0
  154.0845  137.8009  156.6528 C   0  0  0  0  0  0  0  0  0  0  0  0
  153.2139  136.8238  156.3901 N   0  0  0  0  0  0  0  0  0  0  0  0
  152.1031  136.9244  157.1755 C   0  0  0  0  0  0  0  0  0  0  0  0
  151.8569  137.9178  158.1637 C   0  0  0  0  0  0  0  0  0  0  0  0
  150.6168  137.7036  158.7534 N   0  0  0  0  0  0  0  0  0  0  0  0
  150.1527  136.6474  158.1432 C   0  0  0  0  0  0  0  0  0  0  0  0
  150.9779  136.1193  157.1769 N   0  0  0  0  0  0  0  0  0  0  0  0
  150.7013  134.9699  156.3350 C   0  0  0  0  0  0  0  0  0  0  0  0
  149.3822  134.2587  156.7042 C   0  0  2  0  0  0  0  0  0  0  0  0
  149.5537  133.6990  157.9908 O   0  0  0  0  0  0  0  0  0  0  0  0
  148.9637  133.1444  155.7186 C   0  0  1  0  0  0  0  0  0  0  0  0
  148.8776  133.5808  154.2555 C   0  0  0  0  0  0  0  0  0  0  0  0
  149.0027  132.2717  153.4938 C   0  0  0  0  0  0  0  0  0  0  0  0
  149.6706  131.3274  154.4970 C   0  0  0  0  0  0  0  0  0  0  0  0
  149.9562  132.1321  155.6326 O   0  0  0  0  0  0  0  0  0  0  0  0
  150.9383  142.6139  157.0888 C   0  0  0  0  0  0  0  0  0  0  0  0
  149.5092  142.5084  156.8674 N   0  0  0  0  0  0  0  0  0  0  0  0
  149.8780  140.8427  159.3209 H   0  0  0  0  0  0  0  0  0  0  0  0
  149.9103  139.6073  158.0569 H   0  0  0  0  0  0  0  0  0  0  0  0
  151.5764  140.6362  156.8373 H   0  0  0  0  0  0  0  0  0  0  0  0
  153.4170  141.5584  158.0856 H   0  0  0  0  0  0  0  0  0  0  0  0
  152.2932  143.2832  159.4557 H   0  0  0  0  0  0  0  0  0  0  0  0
  151.5191  142.0560  160.4221 H   0  0  0  0  0  0  0  0  0  0  0  0
  154.5142  142.5795  160.2243 H   0  0  0  0  0  0  0  0  0  0  0  0
  153.4828  142.9280  161.5950 H   0  0  0  0  0  0  0  0  0  0  0  0
  154.7429  140.7826  161.9135 H   0  0  0  0  0  0  0  0  0  0  0  0
  153.0131  140.5189  161.9157 H   0  0  0  0  0  0  0  0  0  0  0  0
  154.9060  140.0580  159.5579 H   0  0  0  0  0  0  0  0  0  0  0  0
  154.0990  138.8222  160.5035 H   0  0  0  0  0  0  0  0  0  0  0  0
  154.9904  137.7903  156.0649 H   0  0  0  0  0  0  0  0  0  0  0  0
  149.1851  136.2268  158.3754 H   0  0  0  0  0  0  0  0  0  0  0  0
  150.6773  135.2993  155.2952 H   0  0  0  0  0  0  0  0  0  0  0  0
  151.5404  134.2784  156.4211 H   0  0  0  0  0  0  0  0  0  0  0  0
  148.5804  134.9950  156.7730 H   0  0  0  0  0  0  0  0  0  0  0  0
  149.2226  132.8140  157.9797 H   0  0  0  0  0  0  0  0  0  0  0  0
  148.0171  132.6965  156.0283 H   0  0  0  0  0  0  0  0  0  0  0  0
  147.9572  134.1179  154.0251 H   0  0  0  0  0  0  0  0  0  0  0  0
  149.7188  134.2301  154.0082 H   0  0  0  0  0  0  0  0  0  0  0  0
  148.0213  131.8894  153.2108 H   0  0  0  0  0  0  0  0  0  0  0  0
  149.5924  132.3930  152.5847 H   0  0  0  0  0  0  0  0  0  0  0  0
  148.9905  130.5240  154.7841 H   0  0  0  0  0  0  0  0  0  0  0  0
  150.5837  130.8783  154.1051 H   0  0  0  0  0  0  0  0  0  0  0  0
  151.1176  143.4555  157.7547 H   0  0  0  0  0  0  0  0  0  0  0  0
  151.4690  142.8042  156.1553 H   0  0  0  0  0  0  0  0  0  0  0  0
  148.9942  143.1718  156.3069 H   0  0  0  0  0  0  0  0  0  0  0  0
  1  2  2  0  0  0  0
  2 29  1  0  0  0  0
  2  3  1  0  0  0  0
  3  4  1  0  0  0  0
  3 30  1  0  0  0  0
  3 31  1  0  0  0  0
  4  5  1  0  0  0  0
  4 28  1  0  0  0  0
  4 32  1  0  0  0  0
  5 10  1  0  0  0  0
  5  6  1  0  0  0  0
  5 33  1  0  0  0  0
  6  7  1  0  0  0  0
  6 34  1  0  0  0  0
  6 35  1  0  0  0  0
  7  8  1  0  0  0  0
  7 36  1  0  0  0  0
  7 37  1  0  0  0  0
  8  9  1  0  0  0  0
  8 38  1  0  0  0  0
  8 39  1  0  0  0  0
  9 10  1  0  0  0  0
  9 40  1  0  0  0  0
  9 41  1  0  0  0  0
 10 11  1  0  0  0  0
 11 16  1  0  0  0  0
 11 12  2  0  0  0  0
 12 13  1  0  0  0  0
 13 14  2  0  0  0  0
 13 42  1  0  0  0  0
 14 15  1  0  0  0  0
 15 19  1  0  0  0  0
 15 16  2  0  0  0  0
 16 17  1  0  0  0  0
 17 18  2  0  0  0  0
 18 19  1  0  0  0  0
 18 43  1  0  0  0  0
 19 20  1  0  0  0  0
 20 21  1  0  0  0  0
 20 44  1  0  0  0  0
 20 45  1  0  0  0  0
 21 22  1  0  0  0  0
 21 23  1  0  0  0  0
 21 46  1  0  0  0  0
 22 47  1  0  0  0  0
 23 27  1  0  0  0  0
 23 24  1  0  0  0  0
 23 48  1  0  0  0  0
 24 25  1  0  0  0  0
 24 49  1  0  0  0  0
 24 50  1  0  0  0  0
 25 26  1  0  0  0  0
 25 51  1  0  0  0  0
 25 52  1  0  0  0  0
 26 27  1  0  0  0  0
 26 53  1  0  0  0  0
 26 54  1  0  0  0  0
 28 29  1  0  0  0  0
 28 55  1  0  0  0  0
 28 56  1  0  0  0  0
 29 57  1  0  0  0  0
M  END
> <s_m_source_file>
AV-unprocessed.smi

> <i_m_source_file_index>
203

> <i_lp_mmshare_version>
43012

> <i_f3d_flags>
0

> <s_epik_input>
Tz1DMVtDSDJdW0NASF0oW0NIMl1bTkhdMSlbQ0BASF0yW0NIMl1bQ0gyXVtDSDJdW0NIMl1OMmMobltjSF1uMyljKGMzNCluW2NIXW40W0NIMl1bQ0BIXShbT0hdKVtDQEBIXTVbQ0gyXVtDSDJdW0NIMl1PNQ==

> <s_epik_cmdline>
J2VwaWtfcHl0aG9uJywgJy1waCcsICc3LjAnLCAnLXRuJywgJzgnLCAnLW1hJywgJzIwMCcsICctbWV0YWxfYmluZGluZycsICctaW1hZScsICc8aW5maWxlLm1hZT4nLCAnLW9tYWUnLCAnPG91dGZpbGUubWFlPic=

> <r_lp_tautomer_probability>
1

> <r_epik_Ionization_Penalty>
0.00175146

> <r_epik_Ionization_Penalty_Charging>
0

> <r_epik_Ionization_Penalty_Neutral>
0.00175146

> <r_epik_State_Penalty>
0.00109045

> <r_epik_Charging_Adjusted_Penalty>
0.00109045

> <i_epik_Tot_Q>
0

> <i_epik_Tot_abs_Q>
0

> <r_epik_Metal_State_Penalty>
-0

> <b_epik_Metal_Only>
0

> <s_lp_Force_Field>
OPLS_2005

> <r_lp_Energy>
55.5443

> <b_lp_Chiralities_Consistent>
1

> <s_lp_Variant>
AV-unprocessed.smi:203-12

> <Gold.Version>
5.8.1

> <Gold.Id.Protein>
6NUR|6NUR_protein|mol2

> <Gold.PLP.Fitness>
51.5972

> <Gold.PLP.PLP>
-40.3894

> <Gold.PLP.part.hbond>
-3.9705

> <Gold.PLP.part.metal>
0.0000

> <Gold.PLP.part.buried>
-5.6020

> <Gold.PLP.part.nonpolar>
-31.8873

> <Gold.PLP.part.repulsive>
0.0972

> <Gold.PLP.ligand.clash>
0.0000

> <Gold.PLP.ligand.torsion>
0.3244

> <Gold.PLP.Chemscore.Hbond>
3.8640

> <Gold.PLP.Chemscore.CHOScore>
0.0000

> <Gold.PLP.Chemscore.Metal>
0.0000

> <Gold.Chemscore.Hbonds>
donor molecule, donor type, donor heavy atom, donor atom, acceptor molecule, acceptor atom, score
      L1  H    29    57       P1  8028  0.98
      P1  H  6896  6907       L1    22  1.00
      P1  H  7997  8010       L1    12  0.84
      P1  H 10752 10765       L1    14  0.78

> <Gold.PLP.Chemscore.Internal.Correction>
0.2645

> <Gold.Rescore>
     Score         DG    S(hbond)    S(metal)    S(lipo)     H(rot)  DE(clash)    DE(int)     intcor
     21.11     -21.63       3.65        0.00      93.20       2.72       0.06       0.46       ----

> <Gold.Chemscore.Fitness>
21.1087

> <Gold.Chemscore.DG>
-21.6302

> <Gold.Chemscore.ZeroCoef>
-5.4800

> <Gold.Chemscore.Hbond>
3.6533

> <Gold.Chemscore.Metal>
0.0000

> <Gold.Chemscore.Lipo>
93.1959

> <Gold.Chemscore.Internal_Hbond>
0.0000

> <Gold.Chemscore.DEClash>
0.0576

> <Gold.Chemscore.DEInternal>
0.4639

> <Gold.Chemscore.Rot>
2.7171

> <Gold.Chemscore.Internal.Correction>
   9.000000E+99

> <Gold.Chemscore.Hbonds>
donor molecule, donor type, donor heavy atom, donor atom, acceptor molecule, acceptor atom, score
      L1  H    29    57       P1  8028  0.93
      P1  H  6896  6907       L1    22  0.49
      P1  H  7997  8010       L1    12  0.51
      P1  H 10752 10765       L1    14  0.76

> <Gold.Chemscore.Hbond.Weighted>
-12.2020

> <Gold.Chemscore.Metal.Weighted>
-0.0000

> <Gold.Chemscore.Lipo.Weighted>
-10.9039

> <Gold.Chemscore.Internal_Hbond.Weighted>
0.0000

> <Gold.Chemscore.DEClash.Weighted>
0.0576

> <Gold.Chemscore.DEInternal.Weighted>
0.4639

> <Gold.Chemscore.Rot.Weighted>
6.9557

> <Gold.Chemscore.Internal.Correction.Weighted>
   9.000000E+99

> <Gold.Protein.RotatedTorsions>
[ 6907 6896 6895 6894 ] final -129.19 input  -60.11 | X-H torsion
[ 7974 7965 7964 7962 ] final  -88.81 input  175.53 | X-H torsion
[ 8008 7997 7996 7995 ] final   39.71 input   59.86 | X-H torsion
[ 10167 10162 10161 10158 ] final  107.84 input  -65.29 | X-H torsion
[ 10718 10713 10712 10709 ] final  -32.86 input   66.30 | X-H torsion
[ 10763 10752 10751 10750 ] final -135.05 input  -60.55 | X-H torsion
[ 11005 11000 10999 10996 ] final   48.80 input  -57.11 | X-H torsion

> <Gold.Protein.ActiveResidues>
 VAL166  LYS551  ARG553  GLY616  TRP617  ASP618  TYR619  PRO620  LYS621  CYS622 
 ASP623  PHE694  ASN695  SER759  ASP760  ASP761  ALA762  ILE779  LEU786  VAL792 
 PHE793  MET794  SER795  GLU796  ALA797  LYS798  CYS799  TRP800  GLU811  SER814 

> <Gold.Protein.RotatedAtoms>
  150.9260  133.6823  159.2821 H   0  0  0  0  0  0  0  0  0  0  0  0  # atno 6907 bound_to 6896
  151.4261  135.1002  159.9638 H   0  0  0  0  0  0  0  0  0  0  0  0  # atno 6908 bound_to 6896
  152.5003  133.8701  159.7349 H   0  0  0  0  0  0  0  0  0  0  0  0  # atno 6909 bound_to 6896
  145.4482  140.9560  143.2037 H   0  0  0  0  0  0  0  0  0  0  0  0  # atno 7974 bound_to 7965
  155.2410  140.3345  155.4292 H   0  0  0  0  0  0  0  0  0  0  0  0  # atno 8008 bound_to 7997
  156.2255  140.1827  156.7417 H   0  0  0  0  0  0  0  0  0  0  0  0  # atno 8009 bound_to 7997
  154.5893  140.0640  156.9201 H   0  0  0  0  0  0  0  0  0  0  0  0  # atno 8010 bound_to 7997
  139.6894  144.7109  151.1374 H   0  0  0  0  0  0  0  0  0  0  0  0  # atno 10167 bound_to 10162
  156.3697  130.4337  149.7555 H   0  0  0  0  0  0  0  0  0  0  0  0  # atno 10718 bound_to 10713
  154.8709  135.3715  154.4835 H   0  0  0  0  0  0  0  0  0  0  0  0  # atno 10763 bound_to 10752
  153.5486  135.7025  153.5607 H   0  0  0  0  0  0  0  0  0  0  0  0  # atno 10764 bound_to 10752
  153.3736  135.4015  155.1770 H   0  0  0  0  0  0  0  0  0  0  0  0  # atno 10765 bound_to 10752
  140.1159  134.4894  155.8638 H   0  0  0  0  0  0  0  0  0  0  0  0  # atno 11005 bound_to 11000
  144.8078  139.6018  143.7043 LP  0  0  0  0  0  0  0  0  0  0  0  0  # atno 17320 bound_to 7965
  146.2519  139.6217  142.9421 LP  0  0  0  0  0  0  0  0  0  0  0  0  # atno 17321 bound_to 7965
  140.7678  143.5581  150.9129 LP  0  0  0  0  0  0  0  0  0  0  0  0  # atno 17342 bound_to 10162
  139.9258  143.6552  152.3087 LP  0  0  0  0  0  0  0  0  0  0  0  0  # atno 17343 bound_to 10162
  156.4688  130.7986  151.3005 LP  0  0  0  0  0  0  0  0  0  0  0  0  # atno 17370 bound_to 10713
  157.7482  131.0042  150.3068 LP  0  0  0  0  0  0  0  0  0  0  0  0  # atno 17371 bound_to 10713
  141.2141  133.6743  156.6794 LP  0  0  0  0  0  0  0  0  0  0  0  0  # atno 17394 bound_to 11000
  140.3029  134.8149  157.4113 LP  0  0  0  0  0  0  0  0  0  0  0  0  # atno 17395 bound_to 11000

$$$$
