AV-unprocessed.smi:3308|AV-procd|sdf|12715|dock6
  -GOLD-   2272019 53D 1   1.00000     0.00000
 Structure written by MMmdl.
 40 41  0  0  0  0  0  0  0  0  1 V2000
  149.5226  139.0224  157.5437 C   0  0  0  0  0  0  0  0  0  0  0  0
  150.1933  140.1645  156.7609 C   0  0  1  0  0  0  0  0  0  0  0  0
  151.5606  140.2600  157.2786 N   0  0  0  0  0  0  0  0  0  0  0  0
  151.7813  141.3524  158.2420 C   0  0  0  0  0  0  0  0  0  0  0  0
  152.8507  141.0356  159.3047 C   0  0  0  0  0  0  0  0  0  0  0  0
  153.5620  140.0433  159.1412 O   0  0  0  0  0  0  0  0  0  0  0  0
  152.9801  141.8364  160.3849 N   0  0  0  0  0  0  0  0  0  0  0  0
  153.9412  141.5798  161.4564 C   0  0  0  0  0  0  0  0  0  0  0  0
  153.5663  142.5339  162.5900 C   0  0  0  0  0  0  0  0  0  0  0  0
  152.8735  143.6910  161.8855 C   0  0  0  0  0  0  0  0  0  0  0  0
  152.2066  143.0442  160.6715 C   0  0  0  0  0  0  0  0  0  0  0  0
  150.2240  139.9193  155.2260 C   0  0  1  0  0  0  0  0  0  0  0  0
  150.5180  138.4530  154.8509 C   0  0  0  0  0  0  0  0  0  0  0  0
  148.9869  140.3560  154.5872 N   0  0  0  0  0  0  0  0  0  0  0  0
  148.4313  141.6189  154.5816 C   0  0  0  0  0  0  0  0  0  0  0  0
  147.2587  141.5478  153.8857 C   0  0  0  0  0  0  0  0  0  0  0  0
  147.1765  140.1809  153.5008 C   0  0  0  0  0  0  0  0  0  0  0  0
  148.2091  139.4701  153.9229 N   0  0  0  0  0  0  0  0  0  0  0  0
  148.4628  138.9400  157.3039 H   0  0  0  0  0  0  0  0  0  0  0  0
  149.5877  139.1920  158.6193 H   0  0  0  0  0  0  0  0  0  0  0  0
  149.9906  138.0607  157.3296 H   0  0  0  0  0  0  0  0  0  0  0  0
  149.6265  141.0748  156.9607 H   0  0  0  0  0  0  0  0  0  0  0  0
  151.8280  139.3711  157.6770 H   0  0  0  0  0  0  0  0  0  0  0  0
  152.1167  142.2304  157.6903 H   0  0  0  0  0  0  0  0  0  0  0  0
  150.8257  141.6273  158.6815 H   0  0  0  0  0  0  0  0  0  0  0  0
  153.9175  140.5414  161.7908 H   0  0  0  0  0  0  0  0  0  0  0  0
  154.9460  141.7955  161.0903 H   0  0  0  0  0  0  0  0  0  0  0  0
  152.8622  142.0432  163.2632 H   0  0  0  0  0  0  0  0  0  0  0  0
  154.4275  142.8501  163.1792 H   0  0  0  0  0  0  0  0  0  0  0  0
  152.1649  144.2149  162.5277 H   0  0  0  0  0  0  0  0  0  0  0  0
  153.6196  144.4134  161.5518 H   0  0  0  0  0  0  0  0  0  0  0  0
  152.1869  143.7339  159.8267 H   0  0  0  0  0  0  0  0  0  0  0  0
  151.1810  142.7606  160.9102 H   0  0  0  0  0  0  0  0  0  0  0  0
  151.0286  140.5224  154.8017 H   0  0  0  0  0  0  0  0  0  0  0  0
  151.5228  138.1555  155.1493 H   0  0  0  0  0  0  0  0  0  0  0  0
  150.4516  138.3055  153.7725 H   0  0  0  0  0  0  0  0  0  0  0  0
  149.8129  137.7686  155.3239 H   0  0  0  0  0  0  0  0  0  0  0  0
  148.9095  142.4536  155.0727 H   0  0  0  0  0  0  0  0  0  0  0  0
  146.5637  142.3497  153.6852 H   0  0  0  0  0  0  0  0  0  0  0  0
  146.4015  139.6863  152.9342 H   0  0  0  0  0  0  0  0  0  0  0  0
  1  2  1  0  0  0  0
  1 19  1  0  0  0  0
  1 20  1  0  0  0  0
  1 21  1  0  0  0  0
  2  3  1  0  0  0  0
  2 12  1  0  0  0  0
  2 22  1  0  0  0  0
  3  4  1  0  0  0  0
  3 23  1  0  0  0  0
  4  5  1  0  0  0  0
  4 24  1  0  0  0  0
  4 25  1  0  0  0  0
  5  6  2  0  0  0  0
  5  7  1  0  0  0  0
  7 11  1  0  0  0  0
  7  8  1  0  0  0  0
  8  9  1  0  0  0  0
  8 26  1  0  0  0  0
  8 27  1  0  0  0  0
  9 10  1  0  0  0  0
  9 28  1  0  0  0  0
  9 29  1  0  0  0  0
 10 11  1  0  0  0  0
 10 30  1  0  0  0  0
 10 31  1  0  0  0  0
 11 32  1  0  0  0  0
 11 33  1  0  0  0  0
 12 13  1  0  0  0  0
 12 14  1  0  0  0  0
 12 34  1  0  0  0  0
 13 35  1  0  0  0  0
 13 36  1  0  0  0  0
 13 37  1  0  0  0  0
 14 18  1  0  0  0  0
 14 15  1  0  0  0  0
 15 16  2  0  0  0  0
 15 38  1  0  0  0  0
 16 17  1  0  0  0  0
 16 39  1  0  0  0  0
 17 18  2  0  0  0  0
 17 40  1  0  0  0  0
M  END
> <s_m_source_file>
AV-unprocessed.smi

> <i_m_source_file_index>
3308

> <i_lp_mmshare_version>
43012

> <i_f3d_flags>
0

> <s_epik_input>
bjFbY0hdW2NIXVtjSF1uMVtDQEBIXShbQ0gzXSlbQ0BIXShbQ0gzXSlbTkhdW0NIMl1DKD1PKU4yW0NIMl1bQ0gyXVtDSDJdW0NIMl0y

> <s_epik_cmdline>
J2VwaWtfcHl0aG9uJywgJy1waCcsICc3LjAnLCAnLXRuJywgJzgnLCAnLW1hJywgJzIwMCcsICctbWV0YWxfYmluZGluZycsICctaW1hZScsICc8aW5maWxlLm1hZT4nLCAnLW9tYWUnLCAnPG91dGZpbGUubWFlPic=

> <r_lp_tautomer_probability>
1

> <r_epik_Ionization_Penalty>
0.918676

> <r_epik_Ionization_Penalty_Charging>
0

> <r_epik_Ionization_Penalty_Neutral>
0.918676

> <r_epik_State_Penalty>
0.958258

> <r_epik_Charging_Adjusted_Penalty>
0.958258

> <i_epik_Tot_Q>
0

> <i_epik_Tot_abs_Q>
0

> <r_epik_Metal_State_Penalty>
0.956879

> <b_epik_Metal_Only>
0

> <s_lp_Force_Field>
OPLS_2005

> <r_lp_Energy>
35.595

> <b_lp_Chiralities_Consistent>
1

> <s_lp_Variant>
AV-unprocessed.smi:3308-8

> <Gold.Version>
5.8.1

> <Gold.Id.Protein>
6NUR|6NUR_protein|mol2

> <Gold.PLP.Fitness>
46.4940

> <Gold.PLP.PLP>
-40.3789

> <Gold.PLP.part.hbond>
-1.0000

> <Gold.PLP.part.metal>
0.0000

> <Gold.PLP.part.buried>
-4.2688

> <Gold.PLP.part.nonpolar>
-36.0511

> <Gold.PLP.part.repulsive>
1.2364

> <Gold.PLP.ligand.clash>
0.0000

> <Gold.PLP.ligand.torsion>
1.4224

> <Gold.PLP.Chemscore.Hbond>
0.9600

> <Gold.PLP.Chemscore.CHOScore>
1.9916

> <Gold.PLP.Chemscore.Metal>
0.0000

> <Gold.Chemscore.Hbonds>
donor molecule, donor type, donor heavy atom, donor atom, acceptor molecule, acceptor atom, score
      P1  H  7997  8010       L1     6  0.24
      L1  C    15    38       P1  8028  1.00
      L1  C    17    40       P1 10175  0.16

> <Gold.PLP.Chemscore.Internal.Correction>
0.1050

> <Gold.Rescore>
     Score         DG    S(hbond)    S(metal)    S(lipo)     H(rot)  DE(clash)    DE(int)     intcor
     13.38     -15.01       0.93        0.00      92.50       1.72       0.19       1.44       ----

> <Gold.Chemscore.Fitness>
13.3809

> <Gold.Chemscore.DG>
-15.0111

> <Gold.Chemscore.ZeroCoef>
-5.4800

> <Gold.Chemscore.Hbond>
0.9317

> <Gold.Chemscore.Metal>
0.0000

> <Gold.Chemscore.Lipo>
92.4968

> <Gold.Chemscore.Internal_Hbond>
0.0000

> <Gold.Chemscore.DEClash>
0.1884

> <Gold.Chemscore.DEInternal>
1.4418

> <Gold.Chemscore.Rot>
1.7200

> <Gold.Chemscore.Internal.Correction>
   9.000000E+99

> <Gold.Chemscore.Hbonds>
donor molecule, donor type, donor heavy atom, donor atom, acceptor molecule, acceptor atom, score
      P1  H  7997  8010       L1     6  0.18

> <Gold.Chemscore.Hbond.Weighted>
-3.1120

> <Gold.Chemscore.Metal.Weighted>
-0.0000

> <Gold.Chemscore.Lipo.Weighted>
-10.8221

> <Gold.Chemscore.Internal_Hbond.Weighted>
0.0000

> <Gold.Chemscore.DEClash.Weighted>
0.1884

> <Gold.Chemscore.DEInternal.Weighted>
1.4418

> <Gold.Chemscore.Rot.Weighted>
4.4031

> <Gold.Chemscore.Internal.Correction.Weighted>
   9.000000E+99

> <Gold.Protein.RotatedTorsions>
[ 6907 6896 6895 6894 ] final  111.19 input  -60.11 | X-H torsion
[ 7974 7965 7964 7962 ] final  109.72 input  175.53 | X-H torsion
[ 8008 7997 7996 7995 ] final   32.28 input   59.86 | X-H torsion
[ 10167 10162 10161 10158 ] final   -6.01 input  -65.29 | X-H torsion
[ 10718 10713 10712 10709 ] final   73.42 input   66.30 | X-H torsion
[ 10763 10752 10751 10750 ] final  -78.03 input  -60.55 | X-H torsion
[ 11005 11000 10999 10996 ] final  132.63 input  -57.11 | X-H torsion

> <Gold.Protein.ActiveResidues>
 VAL166  LYS551  ARG553  GLY616  TRP617  ASP618  TYR619  PRO620  LYS621  CYS622 
 ASP623  PHE694  ASN695  SER759  ASP760  ASP761  ALA762  ILE779  LEU786  VAL792 
 PHE793  MET794  SER795  GLU796  ALA797  LYS798  CYS799  TRP800  GLU811  SER814 

> <Gold.Protein.RotatedAtoms>
  152.4982  133.8692  159.7289 H   0  0  0  0  0  0  0  0  0  0  0  0  # atno 6907 bound_to 6896
  150.9183  133.6903  159.2845 H   0  0  0  0  0  0  0  0  0  0  0  0  # atno 6908 bound_to 6896
  151.4288  135.1011  159.9688 H   0  0  0  0  0  0  0  0  0  0  0  0  # atno 6909 bound_to 6896
  145.2642  139.2691  143.4001 H   0  0  0  0  0  0  0  0  0  0  0  0  # atno 7974 bound_to 7965
  155.1199  140.3247  155.4500 H   0  0  0  0  0  0  0  0  0  0  0  0  # atno 8008 bound_to 7997
  156.2666  140.2029  156.6269 H   0  0  0  0  0  0  0  0  0  0  0  0  # atno 8009 bound_to 7997
  154.6692  140.0538  157.0134 H   0  0  0  0  0  0  0  0  0  0  0  0  # atno 8010 bound_to 7997
  140.6983  143.6242  150.8583 H   0  0  0  0  0  0  0  0  0  0  0  0  # atno 10167 bound_to 10162
  157.6547  130.9628  150.1067 H   0  0  0  0  0  0  0  0  0  0  0  0  # atno 10718 bound_to 10713
  154.5207  135.5743  153.6678 H   0  0  0  0  0  0  0  0  0  0  0  0  # atno 10763 bound_to 10752
  152.9916  135.6181  154.2759 H   0  0  0  0  0  0  0  0  0  0  0  0  # atno 10764 bound_to 10752
  154.2679  135.2854  155.2730 H   0  0  0  0  0  0  0  0  0  0  0  0  # atno 10765 bound_to 10752
  139.9802  134.9550  156.9610 H   0  0  0  0  0  0  0  0  0  0  0  0  # atno 11005 bound_to 11000
  146.3266  140.3067  142.8624 LP  0  0  0  0  0  0  0  0  0  0  0  0  # atno 17320 bound_to 7965
  144.9392  140.8059  143.5641 LP  0  0  0  0  0  0  0  0  0  0  0  0  # atno 17321 bound_to 7965
  139.9962  143.5793  152.2892 LP  0  0  0  0  0  0  0  0  0  0  0  0  # atno 17342 bound_to 10162
  139.6466  144.7658  151.2231 LP  0  0  0  0  0  0  0  0  0  0  0  0  # atno 17343 bound_to 10162
  156.1975  130.3658  149.8830 LP  0  0  0  0  0  0  0  0  0  0  0  0  # atno 17370 bound_to 10713
  156.6743  130.8832  151.3567 LP  0  0  0  0  0  0  0  0  0  0  0  0  # atno 17371 bound_to 10713
  140.5112  134.1000  155.7271 LP  0  0  0  0  0  0  0  0  0  0  0  0  # atno 17394 bound_to 11000
  141.1475  133.9029  157.2180 LP  0  0  0  0  0  0  0  0  0  0  0  0  # atno 17395 bound_to 11000

$$$$
