AV-unprocessed.smi:1738|AV-procd|sdf|7000|dock5
  -GOLD-   22720 8213D 1   1.00000     0.00000
 Structure written by MMmdl.
 46 48  0  0  0  0  0  0  0  0  2 V2000
  147.6423  122.3855  153.5277 C   0  0  0  0  0  0  0  0  0  0  0  0
  148.8139  122.7846  152.1674 S   0  0  0  0  0  0  0  0  0  0  0  0
  150.1845  122.6052  152.6710 O   0  0  0  0  0  0  0  0  0  0  0  0
  148.3791  122.0518  150.9679 O   0  0  0  0  0  0  0  0  0  0  0  0
  148.5560  124.5321  151.8834 C   0  0  0  0  0  0  0  0  0  0  0  0
  148.8101  125.0952  150.6170 C   0  0  0  0  0  0  0  0  0  0  0  0
  148.5491  126.4667  150.4348 C   0  0  0  0  0  0  0  0  0  0  0  0
  148.0314  127.2168  151.5206 C   0  0  0  0  0  0  0  0  0  0  0  0
  147.7213  128.6047  151.4803 N   0  0  0  0  0  0  0  0  0  0  0  0
  146.9261  129.3275  152.2880 C   0  0  0  0  0  0  0  0  0  0  0  0
  146.2679  128.8883  153.2296 O   0  0  0  0  0  0  0  0  0  0  0  0
  146.9313  130.6214  151.9359 N   0  0  0  0  0  0  0  0  0  0  0  0
  146.1937  131.6833  152.6187 C   0  0  1  0  0  0  0  0  0  0  0  0
  147.1092  132.7681  153.2168 C   0  0  0  0  0  0  0  0  0  0  0  0
  146.3663  134.0827  152.9580 C   0  0  0  0  0  0  0  0  0  0  0  0
  145.7013  133.8324  151.6741 N   0  3  2  0  0  0  0  0  0  0  0  0
  144.6861  134.7944  151.2003 C   0  0  0  0  0  0  0  0  0  0  0  0
  144.2927  134.4132  149.7565 C   0  0  0  0  0  0  0  0  0  0  0  0
  143.8793  132.9286  149.6329 C   0  0  0  0  0  0  0  0  0  0  0  0
  144.9224  131.9841  150.2695 C   0  0  0  0  0  0  0  0  0  0  0  0
  145.2012  132.4475  151.7106 C   0  0  1  0  0  0  0  0  0  0  0  0
  147.8127  126.5408  152.7405 C   0  0  0  0  0  0  0  0  0  0  0  0
  148.0576  125.2273  152.9272 N   0  0  0  0  0  0  0  0  0  0  0  0
  147.7179  121.3263  153.7725 H   0  0  0  0  0  0  0  0  0  0  0  0
  146.6250  122.6137  153.2105 H   0  0  0  0  0  0  0  0  0  0  0  0
  147.8901  122.9792  154.4073 H   0  0  0  0  0  0  0  0  0  0  0  0
  149.1969  124.4987  149.8042 H   0  0  0  0  0  0  0  0  0  0  0  0
  148.7547  126.9024  149.4706 H   0  0  0  0  0  0  0  0  0  0  0  0
  148.2031  129.1250  150.7616 H   0  0  0  0  0  0  0  0  0  0  0  0
  147.4991  130.8947  151.1471 H   0  0  0  0  0  0  0  0  0  0  0  0
  145.6278  131.2436  153.4427 H   0  0  0  0  0  0  0  0  0  0  0  0
  147.3168  132.6072  154.2753 H   0  0  0  0  0  0  0  0  0  0  0  0
  148.0661  132.7878  152.6931 H   0  0  0  0  0  0  0  0  0  0  0  0
  145.6186  134.2621  153.7323 H   0  0  0  0  0  0  0  0  0  0  0  0
  147.0343  134.9431  152.9130 H   0  0  0  0  0  0  0  0  0  0  0  0
  143.8170  134.7799  151.8595 H   0  0  0  0  0  0  0  0  0  0  0  0
  145.0951  135.8049  151.2243 H   0  0  0  0  0  0  0  0  0  0  0  0
  143.4852  135.0567  149.4061 H   0  0  0  0  0  0  0  0  0  0  0  0
  145.1402  134.6002  149.0958 H   0  0  0  0  0  0  0  0  0  0  0  0
  142.9168  132.7839  150.1252 H   0  0  0  0  0  0  0  0  0  0  0  0
  143.7292  132.6681  148.5849 H   0  0  0  0  0  0  0  0  0  0  0  0
  144.5460  130.9610  150.2605 H   0  0  0  0  0  0  0  0  0  0  0  0
  145.8416  131.9920  149.6826 H   0  0  0  0  0  0  0  0  0  0  0  0
  144.2486  132.4573  152.2452 H   0  0  0  0  0  0  0  0  0  0  0  0
  147.4212  127.0706  153.5966 H   0  0  0  0  0  0  0  0  0  0  0  0
  146.4413  133.8398  150.9867 H   0  0  0  0  0  0  0  0  0  0  0  0
  1  2  1  0  0  0  0
  1 24  1  0  0  0  0
  1 25  1  0  0  0  0
  1 26  1  0  0  0  0
  2  3  2  0  0  0  0
  2  4  2  0  0  0  0
  2  5  1  0  0  0  0
  5 23  1  0  0  0  0
  5  6  2  0  0  0  0
  6  7  1  0  0  0  0
  6 27  1  0  0  0  0
  7  8  2  0  0  0  0
  7 28  1  0  0  0  0
  8  9  1  0  0  0  0
  8 22  1  0  0  0  0
  9 10  1  0  0  0  0
  9 29  1  0  0  0  0
 10 11  2  0  0  0  0
 10 12  1  0  0  0  0
 12 13  1  0  0  0  0
 12 30  1  0  0  0  0
 13 21  1  0  0  0  0
 13 14  1  0  0  0  0
 13 31  1  0  0  0  0
 14 15  1  0  0  0  0
 14 32  1  0  0  0  0
 14 33  1  0  0  0  0
 15 16  1  0  0  0  0
 15 34  1  0  0  0  0
 15 35  1  0  0  0  0
 16 21  1  0  0  0  0
 16 17  1  0  0  0  0
 16 46  1  0  0  0  0
 17 18  1  0  0  0  0
 17 36  1  0  0  0  0
 17 37  1  0  0  0  0
 18 19  1  0  0  0  0
 18 38  1  0  0  0  0
 18 39  1  0  0  0  0
 19 20  1  0  0  0  0
 19 40  1  0  0  0  0
 19 41  1  0  0  0  0
 20 21  1  0  0  0  0
 20 42  1  0  0  0  0
 20 43  1  0  0  0  0
 21 44  1  0  0  0  0
 22 23  2  0  0  0  0
 22 45  1  0  0  0  0
M  CHG  1  16   1
M  END
> <s_m_source_file>
AV-unprocessed.smi

> <i_m_source_file_index>
1738

> <i_lp_mmshare_version>
43012

> <i_f3d_flags>
0

> <s_epik_input>
W0NIM11TKD1PKSg9TyljMVtjSF1bY0hdYyhbY0hdbjEpW05IXUMoPU8pW05IXVtDQEhdKFtDSDJdW0NIMl0yKVtDQEBIXShOMjMpW0NIMl1bQ0gyXVtDSDJdW0NIMl0z

> <s_epik_cmdline>
J2VwaWtfcHl0aG9uJywgJy1waCcsICc3LjAnLCAnLXRuJywgJzgnLCAnLW1hJywgJzIwMCcsICctbWV0YWxfYmluZGluZycsICctaW1hZScsICc8aW5maWxlLm1hZT4nLCAnLW9tYWUnLCAnPG91dGZpbGUubWFlPic=

> <r_epik_Ionization_Penalty>
0.00100042

> <r_epik_Ionization_Penalty_Charging>
0.000974069

> <r_epik_Ionization_Penalty_Neutral>
2.63543e-05

> <r_epik_State_Penalty>
0.000633842

> <r_epik_Charging_Adjusted_Penalty>
0.00160791

> <i_epik_Tot_Q>
1

> <i_epik_Tot_abs_Q>
1

> <r_epik_Metal_State_Penalty>
-0

> <b_epik_Metal_Only>
0

> <s_lp_Force_Field>
OPLS_2005

> <r_lp_Energy>
43.1339

> <b_lp_Chiralities_Consistent>
1

> <s_lp_Variant>
AV-unprocessed.smi:1738-4

> <Gold.Version>
5.8.1

> <Gold.Id.Protein>
6NUR|6NUR_protein|mol2

> <Gold.PLP.Fitness>
41.0724

> <Gold.PLP.PLP>
-36.2195

> <Gold.PLP.part.hbond>
-2.6744

> <Gold.PLP.part.metal>
0.0000

> <Gold.PLP.part.buried>
-3.9479

> <Gold.PLP.part.nonpolar>
-31.0355

> <Gold.PLP.part.repulsive>
0.2552

> <Gold.PLP.ligand.clash>
0.0000

> <Gold.PLP.ligand.torsion>
1.2875

> <Gold.PLP.Chemscore.Hbond>
1.8024

> <Gold.PLP.Chemscore.CHOScore>
0.0000

> <Gold.PLP.Chemscore.Metal>
0.0000

> <Gold.Chemscore.Hbonds>
donor molecule, donor type, donor heavy atom, donor atom, acceptor molecule, acceptor atom, score
      L1  H     9    29       P1 10747  0.80
      L1  H    12    30       P1 10747  1.00

> <Gold.PLP.Chemscore.Internal.Correction>
2.0207

> <Gold.Rescore>
     Score         DG    S(hbond)    S(metal)    S(lipo)     H(rot)  DE(clash)    DE(int)     intcor
     13.64     -16.35       1.16        0.00      81.81       1.00       0.11       2.61       ----

> <Gold.Chemscore.Fitness>
13.6367

> <Gold.Chemscore.DG>
-16.3544

> <Gold.Chemscore.ZeroCoef>
-5.4800

> <Gold.Chemscore.Hbond>
1.1564

> <Gold.Chemscore.Metal>
0.0000

> <Gold.Chemscore.Lipo>
81.8128

> <Gold.Chemscore.Internal_Hbond>
0.0000

> <Gold.Chemscore.DEClash>
0.1107

> <Gold.Chemscore.DEInternal>
2.6071

> <Gold.Chemscore.Rot>
1.0000

> <Gold.Chemscore.Internal.Correction>
   9.000000E+99

> <Gold.Chemscore.Hbonds>
donor molecule, donor type, donor heavy atom, donor atom, acceptor molecule, acceptor atom, score
      L1  H     9    29       P1 10747  0.13
      L1  H    12    30       P1 10747  0.95

> <Gold.Chemscore.Hbond.Weighted>
-3.8623

> <Gold.Chemscore.Metal.Weighted>
-0.0000

> <Gold.Chemscore.Lipo.Weighted>
-9.5721

> <Gold.Chemscore.Internal_Hbond.Weighted>
0.0000

> <Gold.Chemscore.DEClash.Weighted>
0.1107

> <Gold.Chemscore.DEInternal.Weighted>
2.6071

> <Gold.Chemscore.Rot.Weighted>
2.5600

> <Gold.Chemscore.Internal.Correction.Weighted>
   9.000000E+99

> <Gold.Protein.RotatedTorsions>
[ 6907 6896 6895 6894 ] final -165.76 input  -60.11 | X-H torsion
[ 7974 7965 7964 7962 ] final   91.07 input  175.53 | X-H torsion
[ 8008 7997 7996 7995 ] final   15.40 input   59.86 | X-H torsion
[ 10167 10162 10161 10158 ] final -166.17 input  -65.29 | X-H torsion
[ 10718 10713 10712 10709 ] final  159.00 input   66.30 | X-H torsion
[ 10763 10752 10751 10750 ] final   90.06 input  -60.55 | X-H torsion
[ 11005 11000 10999 10996 ] final -135.09 input  -57.11 | X-H torsion

> <Gold.Protein.ActiveResidues>
 VAL166  LYS551  ARG553  GLY616  TRP617  ASP618  TYR619  PRO620  LYS621  CYS622 
 ASP623  PHE694  ASN695  SER759  ASP760  ASP761  ALA762  ILE779  LEU786  VAL792 
 PHE793  MET794  SER795  GLU796  ALA797  LYS798  CYS799  TRP800  GLU811  SER814 

> <Gold.Protein.RotatedAtoms>
  151.4328  133.3665  159.2770 H   0  0  0  0  0  0  0  0  0  0  0  0  # atno 6907 bound_to 6896
  150.9213  134.8632  159.7501 H   0  0  0  0  0  0  0  0  0  0  0  0  # atno 6908 bound_to 6896
  152.4983  134.4266  159.9550 H   0  0  0  0  0  0  0  0  0  0  0  0  # atno 6909 bound_to 6896
  145.5106  139.2277  143.2727 H   0  0  0  0  0  0  0  0  0  0  0  0  # atno 7974 bound_to 7965
  154.8621  140.2946  155.5533 H   0  0  0  0  0  0  0  0  0  0  0  0  # atno 8008 bound_to 7997
  156.3020  140.2476  156.3529 H   0  0  0  0  0  0  0  0  0  0  0  0  # atno 8009 bound_to 7997
  154.8907  140.0394  157.1826 H   0  0  0  0  0  0  0  0  0  0  0  0  # atno 8010 bound_to 7997
  139.6133  144.0770  152.1863 H   0  0  0  0  0  0  0  0  0  0  0  0  # atno 10167 bound_to 10162
  157.1702  131.0608  151.2187 H   0  0  0  0  0  0  0  0  0  0  0  0  # atno 10718 bound_to 10713
  153.1936  135.4448  155.0179 H   0  0  0  0  0  0  0  0  0  0  0  0  # atno 10763 bound_to 10752
  154.8105  135.3292  154.7320 H   0  0  0  0  0  0  0  0  0  0  0  0  # atno 10764 bound_to 10752
  153.7772  135.6980  153.4950 H   0  0  0  0  0  0  0  0  0  0  0  0  # atno 10765 bound_to 10752
  140.8930  134.1788  157.4514 H   0  0  0  0  0  0  0  0  0  0  0  0  # atno 11005 bound_to 11000
  146.2169  140.5912  142.9034 LP  0  0  0  0  0  0  0  0  0  0  0  0  # atno 17320 bound_to 7965
  144.7730  140.5678  143.6657 LP  0  0  0  0  0  0  0  0  0  0  0  0  # atno 17321 bound_to 7965
  140.0394  144.6019  150.7423 LP  0  0  0  0  0  0  0  0  0  0  0  0  # atno 17342 bound_to 10162
  140.7334  143.2716  151.3869 LP  0  0  0  0  0  0  0  0  0  0  0  0  # atno 17343 bound_to 10162
  157.4050  130.7354  149.6796 LP  0  0  0  0  0  0  0  0  0  0  0  0  # atno 17370 bound_to 10713
  155.9739  130.4110  150.3961 LP  0  0  0  0  0  0  0  0  0  0  0  0  # atno 17371 bound_to 10713
  139.8732  134.9866  156.5333 LP  0  0  0  0  0  0  0  0  0  0  0  0  # atno 17394 bound_to 11000
  140.8324  133.8269  155.8996 LP  0  0  0  0  0  0  0  0  0  0  0  0  # atno 17395 bound_to 11000

$$$$
