#       Name:                AV-unprocessed.smi:1228
#       Creating user name   scv26
#       Creation time:       Fri Mar 27 04:21:49 2020


#       File generated by GOLD software.
#

@<TRIPOS>MOLECULE
AV-unprocessed.smi:1228
    47    49     1
SMALL
NO_CHARGES


@<TRIPOS>ATOM
      1 ****        -7.1523   0.1966   1.1468 C.3            1 S1                 0.0000
      2 ****        -5.8178   0.8118   0.8448 C.2            1 S1                 0.0000
      3 ****        -4.5850   0.1474   0.5799 C.2            1 S1                 0.0000
      4 ****        -3.7199   1.1876   0.3763 C.2            1 S1                 0.0000
      5 ****        -2.3938   1.1514   0.0779 N.am           1 S1                 0.0000
      6 ****        -1.5913   0.0802  -0.0514 C.2            1 S1                 0.0000
      7 ****        -1.9326  -1.0921   0.1058 O.2            1 S1                 0.0000
      8 ****        -0.3420   0.4453  -0.3757 N.am           1 S1                 0.0000
      9 ****         0.7676  -0.4765  -0.6031 C.3            1 S1                 0.0000
     10 ****         1.3962  -0.9246   0.7299 C.3            1 S1                 0.0000
     11 ****         2.6216  -1.8216   0.4884 C.3            1 S1                 0.0000
     12 ****         3.6270  -1.1352  -0.3605 N.4            1 S1                 1.0000
     13 ****         4.8618  -1.9344  -0.5174 C.3            1 S1                 0.0000
     14 ****         5.8440  -1.7665   0.6185 C.3            1 S1                 0.0000
     15 ****         6.1057  -1.0993  -0.7136 C.3            1 S1                 0.0000
     16 ****         3.0561  -0.7258  -1.6680 C.3            1 S1                 0.0000
     17 ****         1.8394   0.1957  -1.4768 C.3            1 S1                 0.0000
     18 ****        -4.4089   2.3724   0.5126 N.pl3          1 S1                 0.0000
     19 ****        -3.9305   3.7355   0.3884 C.3            1 S1                 0.0000
     20 ****        -5.7058   2.1349   0.8053 N.2            1 S1                 0.0000
     21 ****        -7.1384  -0.8792   0.9706 H              1 S1                 0.0000
     22 ****        -7.9352   0.6239   0.5196 H              1 S1                 0.0000
     23 ****        -7.4314   0.3590   2.1880 H              1 S1                 0.0000
     24 ****        -4.3922  -0.9144   0.5479 H              1 S1                 0.0000
     25 ****        -1.9625   2.0521  -0.0681 H              1 S1                 0.0000
     26 ****        -0.1480   1.4301  -0.4847 H              1 S1                 0.0000
     27 ****         0.3960  -1.3550  -1.1348 H              1 S1                 0.0000
     28 ****         1.6943  -0.0515   1.3126 H              1 S1                 0.0000
     29 ****         0.6635  -1.4628   1.3326 H              1 S1                 0.0000
     30 ****         3.0718  -2.0884   1.4453 H              1 S1                 0.0000
     31 ****         2.3160  -2.7544   0.0114 H              1 S1                 0.0000
     32 ****         4.7559  -2.8952  -1.0186 H              1 S1                 0.0000
     33 ****         5.5642  -1.1264   1.4534 H              1 S1                 0.0000
     34 ****         6.4639  -2.6226   0.8769 H              1 S1                 0.0000
     35 ****         6.8978  -1.5162  -1.3325 H              1 S1                 0.0000
     36 ****         5.9987  -0.0171  -0.7625 H              1 S1                 0.0000
     37 ****         3.8165  -0.2071  -2.2529 H              1 S1                 0.0000
     38 ****         2.7709  -1.6129  -2.2360 H              1 S1                 0.0000
     39 ****         1.4200   0.4579  -2.4489 H              1 S1                 0.0000
     40 ****         2.1628   1.1308  -1.0167 H              1 S1                 0.0000
     41 ****        -3.1977   3.9382   1.1696 H              1 S1                 0.0000
     42 ****        -4.7553   4.4429   0.4844 H              1 S1                 0.0000
     43 ****        -3.4613   3.8718  -0.5861 H              1 S1                 0.0000
     44 ****         3.8890  -0.2883   0.1233 H              1 S1                 0.0000
     45 ****        -2.8775  -1.3092   0.3508 LP             1 S1                 0.0000
     46 ****        -1.2649  -1.8272  -0.0116 LP             1 S1                 0.0000
     47 ****        -6.4270   2.8103   0.9592 LP             1 S1                 0.0000
@<TRIPOS>BOND
    1    1    2 1     
    2    1   21 1     
    3    1   22 1     
    4    1   23 1     
    5    2   20 2     
    6    2    3 1     
    7    3    4 2     
    8    3   24 1     
    9    4    5 1     
   10    4   18 1     
   11    5    6 am    
   12    5   25 1     
   13    6    7 2     
   14    6    8 am    
   15    8    9 1     
   16    8   26 1     
   17    9   17 1     
   18    9   10 1     
   19    9   27 1     
   20   10   11 1     
   21   10   28 1     
   22   10   29 1     
   23   11   12 1     
   24   11   30 1     
   25   11   31 1     
   26   12   13 1     
   27   12   16 1     
   28   12   44 1     
   29   13   15 1     
   30   13   14 1     
   31   13   32 1     
   32   14   15 1     
   33   14   33 1     
   34   14   34 1     
   35   15   35 1     
   36   15   36 1     
   37   16   17 1     
   38   16   37 1     
   39   16   38 1     
   40   17   39 1     
   41   17   40 1     
   42   18   19 1     
   43   18   20 1     
   44   19   41 1     
   45   19   42 1     
   46   19   43 1     
   47    7   45 1     
   48    7   46 1     
   49   20   47 1     
@<TRIPOS>SUBSTRUCTURE
      1 S1             1
@<TRIPOS>SET
LONE_PAIRS      STATIC     ATOMS    <user>   **** ""
3 45 46 47
DONOR_HYDROGENS      STATIC     ATOMS    <user>   **** ""
3 25 26 44
ATOM$BLUE        STATIC     ATOMS    COLORGROUP SYSTEM
3 45 46 47
ATOM$RED        STATIC     ATOMS    COLORGROUP SYSTEM
3 25 26 44
