#       Name:                AV-unprocessed.smi:1144
#       Creating user name   scv26
#       Creation time:       Fri Mar 27 03:45:18 2020


#       File generated by GOLD software.
#

@<TRIPOS>MOLECULE
AV-unprocessed.smi:1144
    39    40     1
SMALL
NO_CHARGES


@<TRIPOS>ATOM
      1 ****        -3.9832   2.7767   0.4232 C.3            1 S1                 0.0000
      2 ****        -2.5330   2.7003   0.5142 N.3            1 S1                 0.0000
      3 ****        -2.0663   2.9690   1.8678 C.3            1 S1                 0.0000
      4 ****        -0.5354   2.8667   1.9716 C.3            1 S1                 0.0000
      5 ****        -0.1134   1.5846   1.5167 O.3            1 S1                 0.0000
      6 ****        -0.4986   1.3131   0.1702 C.3            1 S1                 0.0000
      7 ****         0.0116  -0.0834  -0.2092 C.3            1 S1                 0.0000
      8 ****         1.4633  -0.1182  -0.3041 N.pl3          1 S1                 0.0000
      9 ****         2.1915  -1.2447  -0.6355 C.ar           1 S1                 0.0000
     10 ****         3.5183  -1.0988  -0.6162 N.ar           1 S1                 0.0000
     11 ****         4.2599  -2.1814  -0.9354 C.ar           1 S1                 0.0000
     12 ****         3.6679  -3.4138  -1.2748 C.ar           1 S1                 0.0000
     13 ****         2.2557  -3.4541  -1.2628 C.ar           1 S1                 0.0000
     14 ****         1.4787  -4.7153  -1.6081 C.3            1 S1                 0.0000
     15 ****         0.6977  -4.4874  -2.6644 F              1 S1                 0.0000
     16 ****         2.2955  -5.7289  -1.8973 F              1 S1                 0.0000
     17 ****         0.7140  -5.0704  -0.5755 F              1 S1                 0.0000
     18 ****         1.5233  -2.3624  -0.9419 N.ar           1 S1                 0.0000
     19 ****        -2.0349   1.4034   0.0737 C.3            1 S1                 0.0000
     20 ****        -4.3378   3.7613   0.7297 H              1 S1                 0.0000
     21 ****        -4.4581   2.0306   1.0617 H              1 S1                 0.0000
     22 ****        -4.3158   2.6081  -0.6013 H              1 S1                 0.0000
     23 ****        -2.3866   3.9639   2.1797 H              1 S1                 0.0000
     24 ****        -2.5213   2.2615   2.5629 H              1 S1                 0.0000
     25 ****        -0.0535   3.6469   1.3803 H              1 S1                 0.0000
     26 ****        -0.2151   3.0021   3.0048 H              1 S1                 0.0000
     27 ****        -0.0511   2.0559  -0.4932 H              1 S1                 0.0000
     28 ****        -0.3262  -0.8211   0.5198 H              1 S1                 0.0000
     29 ****        -0.4017  -0.3735  -1.1759 H              1 S1                 0.0000
     30 ****         1.9799   0.7131  -0.0562 H              1 S1                 0.0000
     31 ****         5.3333  -2.0636  -0.9193 H              1 S1                 0.0000
     32 ****         4.2695  -4.2739  -1.5287 H              1 S1                 0.0000
     33 ****        -2.4829   0.6127   0.6780 H              1 S1                 0.0000
     34 ****        -2.3454   1.2213  -0.9559 H              1 S1                 0.0000
     35 ****        -2.1716   3.4057  -0.0955 LP             1 S1                 0.0000
     36 ****        -0.5170   0.8879   2.1098 LP             1 S1                 0.0000
     37 ****         0.8836   1.5376   1.5781 LP             1 S1                 0.0000
     38 ****         3.9442  -0.2265  -0.3762 LP             1 S1                 0.0000
     39 ****         0.5237  -2.3900  -0.9341 LP             1 S1                 0.0000
@<TRIPOS>BOND
    1    1    2 1     
    2    1   20 1     
    3    1   21 1     
    4    1   22 1     
    5    2   19 1     
    6    2    3 1     
    7    3    4 1     
    8    3   23 1     
    9    3   24 1     
   10    4    5 1     
   11    4   25 1     
   12    4   26 1     
   13    5    6 1     
   14    6    7 1     
   15    6   19 1     
   16    6   27 1     
   17    7    8 1     
   18    7   28 1     
   19    7   29 1     
   20    8    9 1     
   21    8   30 1     
   22    9   18 ar    
   23    9   10 ar    
   24   10   11 ar    
   25   11   12 ar    
   26   11   31 1     
   27   12   13 ar    
   28   12   32 1     
   29   13   14 1     
   30   13   18 ar    
   31   14   15 1     
   32   14   16 1     
   33   14   17 1     
   34   19   33 1     
   35   19   34 1     
   36    2   35 1     
   37    5   36 1     
   38    5   37 1     
   39   10   38 1     
   40   18   39 1     
@<TRIPOS>SUBSTRUCTURE
      1 S1             1
@<TRIPOS>SET
LONE_PAIRS      STATIC     ATOMS    <user>   **** ""
5 35 36 37 38 39
DONOR_HYDROGENS      STATIC     ATOMS    <user>   **** ""
1 30
ATOM$BLUE        STATIC     ATOMS    COLORGROUP SYSTEM
5 35 36 37 38 39
ATOM$RED        STATIC     ATOMS    COLORGROUP SYSTEM
1 30
