#       Name:                AV-unprocessed.smi:1920
#       Creating user name   scv26
#       Creation time:       Fri Mar 27 09:52:49 2020


#       File generated by GOLD software.
#

@<TRIPOS>MOLECULE
AV-unprocessed.smi:1920
    39    40     1
SMALL
NO_CHARGES


@<TRIPOS>ATOM
      1 ****        -2.0267  -0.4694   0.8178 C.3            1 S1                 0.0000
      2 ****        -1.5732   0.2881  -0.4445 C.3            1 S1                 0.0000
      3 ****        -2.1741  -0.2864  -1.7428 C.3            1 S1                 0.0000
      4 ****        -3.6250  -0.2765  -1.7434 N.pl3          1 S1                 0.0000
      5 ****        -4.4532   0.8253  -1.9126 C.2            1 S1                 0.0000
      6 ****        -5.7465   0.3588  -1.8442 C.2            1 S1                 0.0000
      7 ****        -5.7378  -1.0190  -1.6392 N.2            1 S1                 0.0000
      8 ****        -4.4473  -1.3239  -1.5932 C.2            1 S1                 0.0000
      9 ****        -0.1167   0.2721  -0.5473 N.am           1 S1                 0.0000
     10 ****         0.7197   1.0938   0.1057 C.2            1 S1                 0.0000
     11 ****         0.3394   1.9737   0.8779 O.2            1 S1                 0.0000
     12 ****         2.2164   0.8909  -0.1527 C.3            1 S1                 0.0000
     13 ****         3.0520   0.7526   1.1387 C.3            1 S1                 0.0000
     14 ****         2.6662  -0.4371   1.9846 C.2            1 S1                 0.0000
     15 ****         3.7019  -1.2227   2.2703 C.2            1 S1                 0.0000
     16 ****         4.9875  -0.7201   1.6749 C.3            1 S1                 0.0000
     17 ****         4.5612   0.5254   0.8658 C.3            1 S1                 0.0000
     18 ****        -3.1072  -0.4137   0.9509 H              1 S1                 0.0000
     19 ****        -1.5724  -0.0499   1.7160 H              1 S1                 0.0000
     20 ****        -1.7506  -1.5231   0.7672 H              1 S1                 0.0000
     21 ****        -1.9023   1.3253  -0.3558 H              1 S1                 0.0000
     22 ****        -1.8329   0.2893  -2.6045 H              1 S1                 0.0000
     23 ****        -1.8341  -1.3115  -1.8978 H              1 S1                 0.0000
     24 ****        -4.0643   1.8220  -2.0612 H              1 S1                 0.0000
     25 ****        -6.6751   0.9040  -1.9279 H              1 S1                 0.0000
     26 ****        -4.0920  -2.3329  -1.4426 H              1 S1                 0.0000
     27 ****         0.2876  -0.4203  -1.1610 H              1 S1                 0.0000
     28 ****         2.3631   0.0109  -0.7812 H              1 S1                 0.0000
     29 ****         2.5755   1.7435  -0.7300 H              1 S1                 0.0000
     30 ****         2.9290   1.6446   1.7549 H              1 S1                 0.0000
     31 ****         1.6535  -0.6020   2.3231 H              1 S1                 0.0000
     32 ****         3.6570  -2.1195   2.8702 H              1 S1                 0.0000
     33 ****         5.6897  -0.4642   2.4688 H              1 S1                 0.0000
     34 ****         5.4400  -1.4819   1.0394 H              1 S1                 0.0000
     35 ****         4.7455   0.3540  -0.1956 H              1 S1                 0.0000
     36 ****         5.1473   1.3994   1.1515 H              1 S1                 0.0000
     37 ****        -6.5209  -1.6342  -1.5480 LP             1 S1                 0.0000
     38 ****        -0.6379   2.1041   1.0450 LP             1 S1                 0.0000
     39 ****         1.0077   2.5582   1.3381 LP             1 S1                 0.0000
@<TRIPOS>BOND
    1    1    2 1     
    2    1   18 1     
    3    1   19 1     
    4    1   20 1     
    5    2    3 1     
    6    2    9 1     
    7    2   21 1     
    8    3    4 1     
    9    3   22 1     
   10    3   23 1     
   11    4    8 1     
   12    4    5 1     
   13    5    6 2     
   14    5   24 1     
   15    6    7 1     
   16    6   25 1     
   17    7    8 2     
   18    8   26 1     
   19    9   10 am    
   20    9   27 1     
   21   10   11 2     
   22   10   12 1     
   23   12   13 1     
   24   12   28 1     
   25   12   29 1     
   26   13   17 1     
   27   13   14 1     
   28   13   30 1     
   29   14   15 2     
   30   14   31 1     
   31   15   16 1     
   32   15   32 1     
   33   16   17 1     
   34   16   33 1     
   35   16   34 1     
   36   17   35 1     
   37   17   36 1     
   38    7   37 1     
   39   11   38 1     
   40   11   39 1     
@<TRIPOS>SUBSTRUCTURE
      1 S1             1
@<TRIPOS>SET
LONE_PAIRS      STATIC     ATOMS    <user>   **** ""
3 37 38 39
DONOR_HYDROGENS      STATIC     ATOMS    <user>   **** ""
1 27
ATOM$BLUE        STATIC     ATOMS    COLORGROUP SYSTEM
3 37 38 39
ATOM$RED        STATIC     ATOMS    COLORGROUP SYSTEM
1 27
