AV-unprocessed.smi:2761|AV-procd|sdf|10635|dock7
  -GOLD-   2272015 83D 1   1.00000     0.00000
 Structure written by MMmdl.
 26 27  0  0  0  0  0  0  0  0  2 V2000
  153.4517  140.5307  159.2794 O   0  0  0  0  0  0  0  0  0  0  0  0
  152.8323  141.4230  158.6960 C   0  0  0  0  0  0  0  0  0  0  0  0
  152.1731  141.2743  157.5267 N   0  0  0  0  0  0  0  0  0  0  0  0
  152.0605  140.1265  156.7358 C   0  0  0  0  0  0  0  0  0  0  0  0
  150.8001  140.0605  156.0414 C   0  0  0  0  0  0  0  0  0  0  0  0
  150.5825  138.9917  155.2436 C   0  0  0  0  0  0  0  0  0  0  0  0
  151.5905  137.9395  155.0895 C   0  0  0  0  0  0  0  0  0  0  0  0
  151.3499  136.9859  154.3524 O   0  0  0  0  0  0  0  0  0  0  0  0
  152.7670  138.0687  155.7815 N   0  5  0  0  0  0  0  0  0  0  0  0
  152.9853  139.2209  156.6333 N   0  0  0  0  0  0  0  0  0  0  0  0
  152.7520  142.8274  159.3127 C   0  0  1  0  0  0  0  0  0  0  0  0
  152.0352  143.8531  158.4034 C   0  0  0  0  0  0  0  0  0  0  0  0
  151.9718  145.1079  159.0691 O   0  0  0  0  0  0  0  0  0  0  0  0
  151.2596  145.0079  160.2943 C   0  0  0  0  0  0  0  0  0  0  0  0
  151.9762  143.9994  161.2063 C   0  0  0  0  0  0  0  0  0  0  0  0
  152.0415  142.7426  160.5459 O   0  0  0  0  0  0  0  0  0  0  0  0
  151.7092  142.1038  157.1873 H   0  0  0  0  0  0  0  0  0  0  0  0
  150.0336  140.8164  156.1303 H   0  0  0  0  0  0  0  0  0  0  0  0
  149.6478  138.9103  154.7086 H   0  0  0  0  0  0  0  0  0  0  0  0
  153.7730  143.1605  159.5077 H   0  0  0  0  0  0  0  0  0  0  0  0
  152.5816  143.9886  157.4694 H   0  0  0  0  0  0  0  0  0  0  0  0
  151.0292  143.5186  158.1432 H   0  0  0  0  0  0  0  0  0  0  0  0
  151.2245  145.9892  160.7677 H   0  0  0  0  0  0  0  0  0  0  0  0
  150.2288  144.7022  160.1088 H   0  0  0  0  0  0  0  0  0  0  0  0
  152.9794  144.3459  161.4584 H   0  0  0  0  0  0  0  0  0  0  0  0
  151.4312  143.8815  162.1430 H   0  0  0  0  0  0  0  0  0  0  0  0
  1  2  2  0  0  0  0
  2  3  1  0  0  0  0
  2 11  1  0  0  0  0
  3 17  1  0  0  0  0
  3  4  1  0  0  0  0
  4  5  1  0  0  0  0
  4 10  2  0  0  0  0
  5  6  2  0  0  0  0
  5 18  1  0  0  0  0
  6  7  1  0  0  0  0
  6 19  1  0  0  0  0
  7  8  2  0  0  0  0
  7  9  1  0  0  0  0
  9 10  1  0  0  0  0
 11 16  1  0  0  0  0
 11 12  1  0  0  0  0
 11 20  1  0  0  0  0
 12 13  1  0  0  0  0
 12 21  1  0  0  0  0
 12 22  1  0  0  0  0
 13 14  1  0  0  0  0
 14 15  1  0  0  0  0
 14 23  1  0  0  0  0
 14 24  1  0  0  0  0
 15 16  1  0  0  0  0
 15 25  1  0  0  0  0
 15 26  1  0  0  0  0
M  CHG  1   9  -1
M  END
> <s_m_source_file>
AV-unprocessed.smi

> <i_m_source_file_index>
2761

> <i_lp_mmshare_version>
43012

> <i_f3d_flags>
0

> <s_epik_input>
TzFbQ0gyXVtDSDJdT1tDSDJdW0NASF0xQyg9TylbTkhdYzJbY0hdW2NIXWMoW09IXSlubjI=

> <s_epik_cmdline>
J2VwaWtfcHl0aG9uJywgJy1waCcsICc3LjAnLCAnLXRuJywgJzgnLCAnLW1hJywgJzIwMCcsICctbWV0YWxfYmluZGluZycsICctaW1hZScsICc8aW5maWxlLm1hZT4nLCAnLW9tYWUnLCAnPG91dGZpbGUubWFlPic=

> <r_lp_tautomer_probability>
1

> <r_epik_Ionization_Penalty>
4.21844

> <r_epik_Ionization_Penalty_Charging>
0.119247

> <r_epik_Ionization_Penalty_Neutral>
4.0992

> <r_epik_State_Penalty>
4.09486

> <r_epik_Charging_Adjusted_Penalty>
4.2141

> <i_epik_Tot_Q>
-1

> <i_epik_Tot_abs_Q>
1

> <r_epik_Metal_State_Penalty>
0.651223

> <b_epik_Metal_Only>
1

> <s_lp_Force_Field>
OPLS_2005

> <r_lp_Energy>
28.3135

> <b_lp_Chiralities_Consistent>
1

> <s_lp_Variant>
AV-unprocessed.smi:2761-4

> <Gold.Version>
5.8.1

> <Gold.Id.Protein>
6NUR|6NUR_protein|mol2

> <Gold.PLP.Fitness>
35.0599

> <Gold.PLP.PLP>
-30.4056

> <Gold.PLP.part.hbond>
-2.3536

> <Gold.PLP.part.metal>
0.0000

> <Gold.PLP.part.buried>
-3.8853

> <Gold.PLP.part.nonpolar>
-24.1908

> <Gold.PLP.part.repulsive>
0.7771

> <Gold.PLP.ligand.clash>
0.8258

> <Gold.PLP.ligand.torsion>
0.2606

> <Gold.PLP.Chemscore.Hbond>
2.0000

> <Gold.PLP.Chemscore.CHOScore>
0.0000

> <Gold.PLP.Chemscore.Metal>
0.0000

> <Gold.Chemscore.Hbonds>
donor molecule, donor type, donor heavy atom, donor atom, acceptor molecule, acceptor atom, score
      P1  H  7997  8008       L1    10  0.91
      P1  H 10752 10765       L1     8  0.91

> <Gold.PLP.Chemscore.Internal.Correction>
0.0013

> <Gold.Rescore>
     Score         DG    S(hbond)    S(metal)    S(lipo)     H(rot)  DE(clash)    DE(int)     intcor
     14.98     -15.47       1.83        0.00      54.91       1.00       0.05       0.44       ----

> <Gold.Chemscore.Fitness>
14.9822

> <Gold.Chemscore.DG>
-15.4736

> <Gold.Chemscore.ZeroCoef>
-5.4800

> <Gold.Chemscore.Hbond>
1.8349

> <Gold.Chemscore.Metal>
0.0000

> <Gold.Chemscore.Lipo>
54.9144

> <Gold.Chemscore.Internal_Hbond>
0.0000

> <Gold.Chemscore.DEClash>
0.0515

> <Gold.Chemscore.DEInternal>
0.4399

> <Gold.Chemscore.Rot>
1.0000

> <Gold.Chemscore.Internal.Correction>
   9.000000E+99

> <Gold.Chemscore.Hbonds>
donor molecule, donor type, donor heavy atom, donor atom, acceptor molecule, acceptor atom, score
      P1  H  7997  8008       L1    10  0.49
      P1  H 10752 10765       L1     8  0.68

> <Gold.Chemscore.Hbond.Weighted>
-6.1286

> <Gold.Chemscore.Metal.Weighted>
-0.0000

> <Gold.Chemscore.Lipo.Weighted>
-6.4250

> <Gold.Chemscore.Internal_Hbond.Weighted>
0.0000

> <Gold.Chemscore.DEClash.Weighted>
0.0515

> <Gold.Chemscore.DEInternal.Weighted>
0.4399

> <Gold.Chemscore.Rot.Weighted>
2.5600

> <Gold.Chemscore.Internal.Correction.Weighted>
   9.000000E+99

> <Gold.Protein.RotatedTorsions>
[ 6907 6896 6895 6894 ] final  -99.47 input  -60.11 | X-H torsion
[ 7974 7965 7964 7962 ] final  -71.19 input  175.53 | X-H torsion
[ 8008 7997 7996 7995 ] final  -76.59 input   59.86 | X-H torsion
[ 10167 10162 10161 10158 ] final   16.23 input  -65.29 | X-H torsion
[ 10718 10713 10712 10709 ] final   98.25 input   66.30 | X-H torsion
[ 10763 10752 10751 10750 ] final  163.25 input  -60.55 | X-H torsion
[ 11005 11000 10999 10996 ] final   97.39 input  -57.11 | X-H torsion

> <Gold.Protein.ActiveResidues>
 VAL166  LYS551  ARG553  GLY616  TRP617  ASP618  TYR619  PRO620  LYS621  CYS622 
 ASP623  PHE694  ASN695  SER759  ASP760  ASP761  ALA762  ILE779  LEU786  VAL792 
 PHE793  MET794  SER795  GLU796  ALA797  LYS798  CYS799  TRP800  GLU811  SER814 

> <Gold.Protein.RotatedAtoms>
  150.7081  134.1036  159.3974 H   0  0  0  0  0  0  0  0  0  0  0  0  # atno 6907 bound_to 6896
  151.9022  135.0371  160.0516 H   0  0  0  0  0  0  0  0  0  0  0  0  # atno 6908 bound_to 6896
  152.2405  133.5096  159.5304 H   0  0  0  0  0  0  0  0  0  0  0  0  # atno 6909 bound_to 6896
  145.6813  140.9187  143.0831 H   0  0  0  0  0  0  0  0  0  0  0  0  # atno 7974 bound_to 7965
  154.5519  140.0724  156.8682 H   0  0  0  0  0  0  0  0  0  0  0  0  # atno 8008 bound_to 7997
  155.2976  140.3382  155.4231 H   0  0  0  0  0  0  0  0  0  0  0  0  # atno 8009 bound_to 7997
  156.1969  140.1707  156.7966 H   0  0  0  0  0  0  0  0  0  0  0  0  # atno 8010 bound_to 7997
  140.5812  143.8977  150.6791 H   0  0  0  0  0  0  0  0  0  0  0  0  # atno 10167 bound_to 10162
  157.6899  131.0634  150.4767 H   0  0  0  0  0  0  0  0  0  0  0  0  # atno 10718 bound_to 10713
  154.2908  135.2761  155.2655 H   0  0  0  0  0  0  0  0  0  0  0  0  # atno 10763 bound_to 10752
  154.5135  135.5776  153.6627 H   0  0  0  0  0  0  0  0  0  0  0  0  # atno 10764 bound_to 10752
  152.9914  135.6187  154.3073 H   0  0  0  0  0  0  0  0  0  0  0  0  # atno 10765 bound_to 10752
  139.8776  134.8998  156.4299 H   0  0  0  0  0  0  0  0  0  0  0  0  # atno 11005 bound_to 11000
  144.7025  139.8700  143.7440 LP  0  0  0  0  0  0  0  0  0  0  0  0  # atno 17320 bound_to 7965
  146.0962  139.3954  143.0375 LP  0  0  0  0  0  0  0  0  0  0  0  0  # atno 17321 bound_to 7965
  140.2477  143.3616  152.1432 LP  0  0  0  0  0  0  0  0  0  0  0  0  # atno 17342 bound_to 10162
  139.5171  144.6987  151.5557 LP  0  0  0  0  0  0  0  0  0  0  0  0  # atno 17343 bound_to 10162
  156.5102  130.4137  149.6305 LP  0  0  0  0  0  0  0  0  0  0  0  0  # atno 17370 bound_to 10713
  156.3248  130.7300  151.2218 LP  0  0  0  0  0  0  0  0  0  0  0  0  # atno 17371 bound_to 10713
  140.9074  133.7736  155.9751 LP  0  0  0  0  0  0  0  0  0  0  0  0  # atno 17394 bound_to 11000
  140.8584  134.2870  157.5245 LP  0  0  0  0  0  0  0  0  0  0  0  0  # atno 17395 bound_to 11000

$$$$
