AV-unprocessed.smi:3019|AV-procd|sdf|11487|dock3
  -GOLD-   2272016423D 1   1.00000     0.00000
 Structure written by MMmdl.
 31 32  0  0  0  0  0  0  0  0  2 V2000
  152.4228  144.2900  160.0727 C   0  0  0  0  0  0  0  0  0  0  0  0
  152.0131  142.8153  159.9460 C   0  0  0  0  0  0  0  0  0  0  0  0
  153.1213  141.8460  160.3835 C   0  0  0  0  0  0  0  0  0  0  0  0
  151.5091  142.4964  158.5717 C   0  0  0  0  0  0  0  0  0  0  0  0
  150.5505  143.2251  158.0009 N   0  0  0  0  0  0  0  0  0  0  0  0
  150.4038  142.6140  156.8067 N   0  0  0  0  0  0  0  0  0  0  0  0
  151.2550  141.5889  156.7266 C   0  0  0  0  0  0  0  0  0  0  0  0
  151.3280  140.7024  155.5237 C   0  0  2  0  0  0  0  0  0  0  0  0
  149.9772  140.0346  155.2016 C   0  0  0  0  0  0  0  0  0  0  0  0
  150.1345  139.0954  154.0739 N   0  3  0  0  0  0  0  0  0  0  0  0
  151.2006  138.1084  154.3371 C   0  0  0  0  0  0  0  0  0  0  0  0
  152.5132  138.8281  154.6939 C   0  0  0  0  0  0  0  0  0  0  0  0
  152.2996  139.6969  155.8014 O   0  0  0  0  0  0  0  0  0  0  0  0
  151.9909  141.4556  157.8255 N   0  0  0  0  0  0  0  0  0  0  0  0
  149.7404  142.9210  156.1099 H   0  0  0  0  0  0  0  0  0  0  0  0
  151.5923  144.9510  159.8225 H   0  0  0  0  0  0  0  0  0  0  0  0
  153.2526  144.5302  159.4072 H   0  0  0  0  0  0  0  0  0  0  0  0
  152.7353  144.5237  161.0907 H   0  0  0  0  0  0  0  0  0  0  0  0
  151.1831  142.6662  160.6388 H   0  0  0  0  0  0  0  0  0  0  0  0
  152.7745  140.8126  160.3522 H   0  0  0  0  0  0  0  0  0  0  0  0
  153.4441  142.0547  161.4036 H   0  0  0  0  0  0  0  0  0  0  0  0
  153.9954  141.9241  159.7365 H   0  0  0  0  0  0  0  0  0  0  0  0
  151.6624  141.2997  154.6730 H   0  0  0  0  0  0  0  0  0  0  0  0
  149.6046  139.4871  156.0687 H   0  0  0  0  0  0  0  0  0  0  0  0
  149.2269  140.7837  154.9470 H   0  0  0  0  0  0  0  0  0  0  0  0
  149.2616  138.6124  153.9138 H   0  0  0  0  0  0  0  0  0  0  0  0
  150.8926  137.4582  155.1573 H   0  0  0  0  0  0  0  0  0  0  0  0
  151.3350  137.4765  153.4590 H   0  0  0  0  0  0  0  0  0  0  0  0
  153.2816  138.1010  154.9577 H   0  0  0  0  0  0  0  0  0  0  0  0
  152.8908  139.3953  153.8415 H   0  0  0  0  0  0  0  0  0  0  0  0
  150.3768  139.6205  153.2459 H   0  0  0  0  0  0  0  0  0  0  0  0
  1  2  1  0  0  0  0
  1 16  1  0  0  0  0
  1 17  1  0  0  0  0
  1 18  1  0  0  0  0
  2  3  1  0  0  0  0
  2  4  1  0  0  0  0
  2 19  1  0  0  0  0
  3 20  1  0  0  0  0
  3 21  1  0  0  0  0
  3 22  1  0  0  0  0
  4 14  1  0  0  0  0
  4  5  2  0  0  0  0
  5  6  1  0  0  0  0
  6 15  1  0  0  0  0
  6  7  1  0  0  0  0
  7  8  1  0  0  0  0
  7 14  2  0  0  0  0
  8 13  1  0  0  0  0
  8  9  1  0  0  0  0
  8 23  1  0  0  0  0
  9 10  1  0  0  0  0
  9 24  1  0  0  0  0
  9 25  1  0  0  0  0
 10 11  1  0  0  0  0
 10 26  1  0  0  0  0
 10 31  1  0  0  0  0
 11 12  1  0  0  0  0
 11 27  1  0  0  0  0
 11 28  1  0  0  0  0
 12 13  1  0  0  0  0
 12 29  1  0  0  0  0
 12 30  1  0  0  0  0
M  CHG  1  10   1
M  END
> <s_m_source_file>
AV-unprocessed.smi

> <i_m_source_file_index>
3019

> <i_lp_mmshare_version>
43012

> <i_f3d_flags>
0

> <s_epik_input>
W0NIM11bQ0hdKFtDSDNdKWMxbltuSF1jKG4xKVtDQEBIXTJbQ0gyXVtOSF1bQ0gyXVtDSDJdTzI=

> <s_epik_cmdline>
J2VwaWtfcHl0aG9uJywgJy1waCcsICc3LjAnLCAnLXRuJywgJzgnLCAnLW1hJywgJzIwMCcsICctbWV0YWxfYmluZGluZycsICctaW1hZScsICc8aW5maWxlLm1hZT4nLCAnLW9tYWUnLCAnPG91dGZpbGUubWFlPic=

> <r_epik_Ionization_Penalty>
0.162344

> <r_epik_Ionization_Penalty_Charging>
0.125708

> <r_epik_Ionization_Penalty_Neutral>
0.0366363

> <r_epik_State_Penalty>
1.18286

> <r_epik_Charging_Adjusted_Penalty>
1.30856

> <i_epik_Tot_Q>
1

> <i_epik_Tot_abs_Q>
1

> <r_epik_Metal_State_Penalty>
1.49333

> <b_epik_Metal_Only>
0

> <s_lp_Force_Field>
OPLS_2005

> <r_lp_Energy>
8.53585

> <b_lp_Chiralities_Consistent>
1

> <s_lp_Variant>
AV-unprocessed.smi:3019-3

> <Gold.Version>
5.8.1

> <Gold.Id.Protein>
6NUR|6NUR_protein|mol2

> <Gold.PLP.Fitness>
33.7624

> <Gold.PLP.PLP>
-28.6053

> <Gold.PLP.part.hbond>
-2.3569

> <Gold.PLP.part.metal>
0.0000

> <Gold.PLP.part.buried>
-2.8069

> <Gold.PLP.part.nonpolar>
-22.5192

> <Gold.PLP.part.repulsive>
0.2962

> <Gold.PLP.ligand.clash>
0.0000

> <Gold.PLP.ligand.torsion>
0.0696

> <Gold.PLP.Chemscore.Hbond>
1.7456

> <Gold.PLP.Chemscore.CHOScore>
0.0000

> <Gold.PLP.Chemscore.Metal>
0.0000

> <Gold.Chemscore.Hbonds>
donor molecule, donor type, donor heavy atom, donor atom, acceptor molecule, acceptor atom, score
      L1  H     6    15       P1  8028  0.66
      L1  H    10    31       P1  7957  0.37
      P1  H  7997  8008       L1    13  0.69

> <Gold.PLP.Chemscore.Internal.Correction>
0.0595

> <Gold.Rescore>
     Score         DG    S(hbond)    S(metal)    S(lipo)     H(rot)  DE(clash)    DE(int)     intcor
     13.96     -15.39       1.71        0.00      63.76       1.28       1.31       0.12       ----

> <Gold.Chemscore.Fitness>
13.9611

> <Gold.Chemscore.DG>
-15.3866

> <Gold.Chemscore.ZeroCoef>
-5.4800

> <Gold.Chemscore.Hbond>
1.7131

> <Gold.Chemscore.Metal>
0.0000

> <Gold.Chemscore.Lipo>
63.7646

> <Gold.Chemscore.Internal_Hbond>
0.0000

> <Gold.Chemscore.DEClash>
1.3055

> <Gold.Chemscore.DEInternal>
0.1200

> <Gold.Chemscore.Rot>
1.2795

> <Gold.Chemscore.Internal.Correction>
   9.000000E+99

> <Gold.Chemscore.Hbonds>
donor molecule, donor type, donor heavy atom, donor atom, acceptor molecule, acceptor atom, score
      L1  H     6    15       P1  8028  0.62
      L1  H    10    31       P1  7957  0.36
      P1  H  7997  8008       L1    13  0.16

> <Gold.Chemscore.Hbond.Weighted>
-5.7216

> <Gold.Chemscore.Metal.Weighted>
-0.0000

> <Gold.Chemscore.Lipo.Weighted>
-7.4605

> <Gold.Chemscore.Internal_Hbond.Weighted>
0.0000

> <Gold.Chemscore.DEClash.Weighted>
1.3055

> <Gold.Chemscore.DEInternal.Weighted>
0.1200

> <Gold.Chemscore.Rot.Weighted>
3.2754

> <Gold.Chemscore.Internal.Correction.Weighted>
   9.000000E+99

> <Gold.Protein.RotatedTorsions>
[ 6907 6896 6895 6894 ] final -133.09 input  -60.11 | X-H torsion
[ 7974 7965 7964 7962 ] final -178.60 input  175.53 | X-H torsion
[ 8008 7997 7996 7995 ] final  -40.14 input   59.86 | X-H torsion
[ 10167 10162 10161 10158 ] final  -40.09 input  -65.29 | X-H torsion
[ 10718 10713 10712 10709 ] final    3.87 input   66.30 | X-H torsion
[ 10763 10752 10751 10750 ] final -155.55 input  -60.55 | X-H torsion
[ 11005 11000 10999 10996 ] final   99.52 input  -57.11 | X-H torsion

> <Gold.Protein.ActiveResidues>
 VAL166  LYS551  ARG553  GLY616  TRP617  ASP618  TYR619  PRO620  LYS621  CYS622 
 ASP623  PHE694  ASN695  SER759  ASP760  ASP761  ALA762  ILE779  LEU786  VAL792 
 PHE793  MET794  SER795  GLU796  ALA797  LYS798  CYS799  TRP800  GLU811  SER814 

> <Gold.Protein.RotatedAtoms>
  150.9700  133.6354  159.2739 H   0  0  0  0  0  0  0  0  0  0  0  0  # atno 6907 bound_to 6896
  151.3646  135.0909  159.9455 H   0  0  0  0  0  0  0  0  0  0  0  0  # atno 6908 bound_to 6896
  152.5179  133.9267  159.7615 H   0  0  0  0  0  0  0  0  0  0  0  0  # atno 6909 bound_to 6896
  144.7132  140.0844  143.6424 H   0  0  0  0  0  0  0  0  0  0  0  0  # atno 7974 bound_to 7965
  154.4015  140.1533  156.2979 H   0  0  0  0  0  0  0  0  0  0  0  0  # atno 8008 bound_to 7997
  155.8727  140.3448  155.5810 H   0  0  0  0  0  0  0  0  0  0  0  0  # atno 8009 bound_to 7997
  155.7756  140.0836  157.2076 H   0  0  0  0  0  0  0  0  0  0  0  0  # atno 8010 bound_to 7997
  140.7045  143.3174  151.2875 H   0  0  0  0  0  0  0  0  0  0  0  0  # atno 10167 bound_to 10162
  156.8843  130.5664  149.5652 H   0  0  0  0  0  0  0  0  0  0  0  0  # atno 10718 bound_to 10713
  154.7778  135.3165  154.8054 H   0  0  0  0  0  0  0  0  0  0  0  0  # atno 10763 bound_to 10752
  153.8773  135.6838  153.4774 H   0  0  0  0  0  0  0  0  0  0  0  0  # atno 10764 bound_to 10752
  153.1407  135.4740  154.9427 H   0  0  0  0  0  0  0  0  0  0  0  0  # atno 10765 bound_to 10752
  139.8771  134.9099  156.4618 H   0  0  0  0  0  0  0  0  0  0  0  0  # atno 11005 bound_to 11000
  145.9674  139.2845  143.1119 LP  0  0  0  0  0  0  0  0  0  0  0  0  # atno 17320 bound_to 7965
  145.9154  140.9152  143.0432 LP  0  0  0  0  0  0  0  0  0  0  0  0  # atno 17321 bound_to 7965
  139.6617  144.0177  152.2697 LP  0  0  0  0  0  0  0  0  0  0  0  0  # atno 17342 bound_to 10162
  139.9746  144.6470  150.7957 LP  0  0  0  0  0  0  0  0  0  0  0  0  # atno 17343 bound_to 10162
  156.0661  130.5704  150.9292 LP  0  0  0  0  0  0  0  0  0  0  0  0  # atno 17370 bound_to 10713
  157.6122  131.0935  150.8775 LP  0  0  0  0  0  0  0  0  0  0  0  0  # atno 17371 bound_to 10713
  140.8858  133.7884  155.9517 LP  0  0  0  0  0  0  0  0  0  0  0  0  # atno 17394 bound_to 11000
  140.8806  134.2616  157.5146 LP  0  0  0  0  0  0  0  0  0  0  0  0  # atno 17395 bound_to 11000

$$$$
