AV-unprocessed.smi:3058|AV-procd|sdf|11674|dock2
  -GOLD-   2272017 73D 1   1.00000     0.00000
 Structure written by MMmdl.
 39 41  0  0  0  0  0  0  0  0  2 V2000
  151.5231  140.7387  157.9855 O   0  0  0  0  0  0  0  0  0  0  0  0
  151.2425  141.9132  157.7421 C   0  0  0  0  0  0  0  0  0  0  0  0
  150.1968  142.2690  156.9800 N   0  0  0  0  0  0  0  0  0  0  0  0
  149.2776  141.3379  156.3369 C   0  0  0  0  0  0  0  0  0  0  0  0
  149.1816  141.5924  154.8237 C   0  0  0  0  0  0  0  0  0  0  0  0
  148.3224  140.5567  154.1257 C   0  0  0  0  0  0  0  0  0  0  0  0
  148.7532  139.2148  154.0326 C   0  0  0  0  0  0  0  0  0  0  0  0
  147.9331  138.2687  153.3831 C   0  0  0  0  0  0  0  0  0  0  0  0
  146.6998  138.6859  152.8425 C   0  0  0  0  0  0  0  0  0  0  0  0
  146.3203  139.9783  152.9514 N   0  3  0  0  0  0  0  0  0  0  0  0
  147.0773  140.9147  153.5647 C   0  0  0  0  0  0  0  0  0  0  0  0
  152.0776  143.0667  158.3258 C   0  0  1  0  0  0  0  0  0  0  0  0
  151.6046  144.4830  157.9140 C   0  0  0  0  0  0  0  0  0  0  0  0
  151.4422  145.2011  159.2670 C   0  0  1  0  0  0  0  0  0  0  0  0
  150.1929  144.6623  159.9890 C   0  0  0  0  0  0  0  0  0  0  0  0
  150.6496  143.2710  160.4649 C   0  0  0  0  0  0  0  0  0  0  0  0
  152.0732  143.1608  159.8753 C   0  0  2  0  0  0  0  0  0  0  0  0
  152.5732  144.5873  160.0844 C   0  0  0  0  0  0  0  0  0  0  0  0
  150.0279  143.2541  156.8363 H   0  0  0  0  0  0  0  0  0  0  0  0
  149.5915  140.3113  156.5339 H   0  0  0  0  0  0  0  0  0  0  0  0
  148.2965  141.4558  156.7976 H   0  0  0  0  0  0  0  0  0  0  0  0
  148.7694  142.5847  154.6358 H   0  0  0  0  0  0  0  0  0  0  0  0
  150.1751  141.5837  154.3730 H   0  0  0  0  0  0  0  0  0  0  0  0
  149.7003  138.9121  154.4557 H   0  0  0  0  0  0  0  0  0  0  0  0
  148.2462  137.2379  153.3025 H   0  0  0  0  0  0  0  0  0  0  0  0
  146.0105  138.0297  152.3310 H   0  0  0  0  0  0  0  0  0  0  0  0
  146.6654  141.9132  153.5894 H   0  0  0  0  0  0  0  0  0  0  0  0
  153.1091  142.9423  157.9898 H   0  0  0  0  0  0  0  0  0  0  0  0
  152.3712  144.9740  157.3129 H   0  0  0  0  0  0  0  0  0  0  0  0
  150.6818  144.5003  157.3326 H   0  0  0  0  0  0  0  0  0  0  0  0
  151.4662  146.2884  159.1887 H   0  0  0  0  0  0  0  0  0  0  0  0
  149.9286  145.2913  160.8400 H   0  0  0  0  0  0  0  0  0  0  0  0
  149.3269  144.6112  159.3280 H   0  0  0  0  0  0  0  0  0  0  0  0
  150.6920  143.2442  161.5548 H   0  0  0  0  0  0  0  0  0  0  0  0
  149.9769  142.4723  160.1552 H   0  0  0  0  0  0  0  0  0  0  0  0
  152.6862  142.3985  160.3572 H   0  0  0  0  0  0  0  0  0  0  0  0
  153.5624  144.7686  159.6600 H   0  0  0  0  0  0  0  0  0  0  0  0
  152.5712  144.9009  161.1299 H   0  0  0  0  0  0  0  0  0  0  0  0
  145.4234  140.2591  152.5540 H   0  0  0  0  0  0  0  0  0  0  0  0
  1  2  2  0  0  0  0
  2  3  1  0  0  0  0
  2 12  1  0  0  0  0
  3  4  1  0  0  0  0
  3 19  1  0  0  0  0
  4  5  1  0  0  0  0
  4 20  1  0  0  0  0
  4 21  1  0  0  0  0
  5  6  1  0  0  0  0
  5 22  1  0  0  0  0
  5 23  1  0  0  0  0
  6 11  1  0  0  0  0
  6  7  2  0  0  0  0
  7  8  1  0  0  0  0
  7 24  1  0  0  0  0
  8  9  2  0  0  0  0
  8 25  1  0  0  0  0
  9 10  1  0  0  0  0
  9 26  1  0  0  0  0
 10 11  2  0  0  0  0
 10 39  1  0  0  0  0
 11 27  1  0  0  0  0
 12 17  1  0  0  0  0
 12 13  1  0  0  0  0
 12 28  1  0  0  0  0
 13 14  1  0  0  0  0
 13 29  1  0  0  0  0
 13 30  1  0  0  0  0
 14 18  1  0  0  0  0
 14 15  1  0  0  0  0
 14 31  1  0  0  0  0
 15 16  1  0  0  0  0
 15 32  1  0  0  0  0
 15 33  1  0  0  0  0
 16 17  1  0  0  0  0
 16 34  1  0  0  0  0
 16 35  1  0  0  0  0
 17 18  1  0  0  0  0
 17 36  1  0  0  0  0
 18 37  1  0  0  0  0
 18 38  1  0  0  0  0
M  CHG  1  10   1
M  END
> <s_m_source_file>
AV-unprocessed.smi

> <i_m_source_file_index>
3058

> <i_lp_mmshare_version>
43012

> <i_f3d_flags>
0

> <s_epik_input>
W0NIMl0xW0NIMl1bQ0BIXShbQ0gyXTIpW0NAQEhdKFtDSDJdW0NAQEhdMTIpQyg9TylbTkhdW0NIMl1bQ0gyXWMzW2NIXVtjSF1bY0hdbltjSF0z

> <s_epik_cmdline>
J2VwaWtfcHl0aG9uJywgJy1waCcsICc3LjAnLCAnLXRuJywgJzgnLCAnLW1hJywgJzIwMCcsICctbWV0YWxfYmluZGluZycsICctaW1hZScsICc8aW5maWxlLm1hZT4nLCAnLW9tYWUnLCAnPG91dGZpbGUubWFlPic=

> <r_epik_Ionization_Penalty>
2.24375

> <r_epik_Ionization_Penalty_Charging>
2.24375

> <r_epik_Ionization_Penalty_Neutral>
1.89995e-08

> <r_epik_State_Penalty>
2.39035

> <r_epik_Charging_Adjusted_Penalty>
4.63411

> <i_epik_Tot_Q>
1

> <i_epik_Tot_abs_Q>
1

> <r_epik_Metal_State_Penalty>
2.40369

> <b_epik_Metal_Only>
0

> <s_lp_Force_Field>
OPLS_2005

> <r_lp_Energy>
53.8875

> <b_lp_Chiralities_Consistent>
1

> <s_lp_Variant>
AV-unprocessed.smi:3058-6

> <Gold.Version>
5.8.1

> <Gold.Id.Protein>
6NUR|6NUR_protein|mol2

> <Gold.PLP.Fitness>
42.2238

> <Gold.PLP.PLP>
-33.6727

> <Gold.PLP.part.hbond>
-2.0000

> <Gold.PLP.part.metal>
0.0000

> <Gold.PLP.part.buried>
0.5852

> <Gold.PLP.part.nonpolar>
-33.2030

> <Gold.PLP.part.repulsive>
0.0272

> <Gold.PLP.ligand.clash>
0.0000

> <Gold.PLP.ligand.torsion>
0.0945

> <Gold.PLP.Chemscore.Hbond>
2.9039

> <Gold.PLP.Chemscore.CHOScore>
0.0000

> <Gold.PLP.Chemscore.Metal>
0.0000

> <Gold.Chemscore.Hbonds>
donor molecule, donor type, donor heavy atom, donor atom, acceptor molecule, acceptor atom, score
      L1  H     3    19       P1  8028  0.52
      L1  H    10    39       P1 10175  2.00

> <Gold.PLP.Chemscore.Internal.Correction>
0.0285

> <Gold.Rescore>
     Score         DG    S(hbond)    S(metal)    S(lipo)     H(rot)  DE(clash)    DE(int)     intcor
     19.06     -22.17       1.91        0.00     120.02       1.45       2.91       0.20       ----

> <Gold.Chemscore.Fitness>
19.0646

> <Gold.Chemscore.DG>
-22.1658

> <Gold.Chemscore.ZeroCoef>
-5.4800

> <Gold.Chemscore.Hbond>
1.9064

> <Gold.Chemscore.Metal>
0.0000

> <Gold.Chemscore.Lipo>
120.0231

> <Gold.Chemscore.Internal_Hbond>
0.0000

> <Gold.Chemscore.DEClash>
2.9061

> <Gold.Chemscore.DEInternal>
0.1950

> <Gold.Chemscore.Rot>
1.4548

> <Gold.Chemscore.Internal.Correction>
   9.000000E+99

> <Gold.Chemscore.Hbonds>
donor molecule, donor type, donor heavy atom, donor atom, acceptor molecule, acceptor atom, score
      L1  H     3    19       P1  8028  0.51
      L1  H    10    39       P1 10175  0.81

> <Gold.Chemscore.Hbond.Weighted>
-6.3673

> <Gold.Chemscore.Metal.Weighted>
-0.0000

> <Gold.Chemscore.Lipo.Weighted>
-14.0427

> <Gold.Chemscore.Internal_Hbond.Weighted>
0.0000

> <Gold.Chemscore.DEClash.Weighted>
2.9061

> <Gold.Chemscore.DEInternal.Weighted>
0.1950

> <Gold.Chemscore.Rot.Weighted>
3.7242

> <Gold.Chemscore.Internal.Correction.Weighted>
   9.000000E+99

> <Gold.Protein.RotatedTorsions>
[ 6907 6896 6895 6894 ] final -173.33 input  -60.11 | X-H torsion
[ 7974 7965 7964 7962 ] final  110.18 input  175.53 | X-H torsion
[ 8008 7997 7996 7995 ] final  105.80 input   59.86 | X-H torsion
[ 10167 10162 10161 10158 ] final    7.57 input  -65.29 | X-H torsion
[ 10718 10713 10712 10709 ] final  -59.54 input   66.30 | X-H torsion
[ 10763 10752 10751 10750 ] final   40.21 input  -60.55 | X-H torsion
[ 11005 11000 10999 10996 ] final   26.87 input  -57.11 | X-H torsion

> <Gold.Protein.ActiveResidues>
 VAL166  LYS551  ARG553  GLY616  TRP617  ASP618  TYR619  PRO620  LYS621  CYS622 
 ASP623  PHE694  ASN695  SER759  ASP760  ASP761  ALA762  ILE779  LEU786  VAL792 
 PHE793  MET794  SER795  GLU796  ALA797  LYS798  CYS799  TRP800  GLU811  SER814 

> <Gold.Protein.RotatedAtoms>
  151.5544  133.3412  159.2958 H   0  0  0  0  0  0  0  0  0  0  0  0  # atno 6907 bound_to 6896
  150.8459  134.7771  159.6981 H   0  0  0  0  0  0  0  0  0  0  0  0  # atno 6908 bound_to 6896
  152.4517  134.5387  159.9884 H   0  0  0  0  0  0  0  0  0  0  0  0  # atno 6909 bound_to 6896
  145.2583  139.2712  143.4031 H   0  0  0  0  0  0  0  0  0  0  0  0  # atno 7974 bound_to 7965
  156.1689  140.3124  155.8939 H   0  0  0  0  0  0  0  0  0  0  0  0  # atno 8008 bound_to 7997
  155.3627  140.0477  157.3063 H   0  0  0  0  0  0  0  0  0  0  0  0  # atno 8009 bound_to 7997
  154.5221  140.2202  155.8967 H   0  0  0  0  0  0  0  0  0  0  0  0  # atno 8010 bound_to 7997
  140.6364  143.7877  150.7365 H   0  0  0  0  0  0  0  0  0  0  0  0  # atno 10167 bound_to 10162
  156.1054  130.4181  150.0729 H   0  0  0  0  0  0  0  0  0  0  0  0  # atno 10718 bound_to 10713
  152.9943  135.6198  154.2590 H   0  0  0  0  0  0  0  0  0  0  0  0  # atno 10763 bound_to 10752
  154.2326  135.2791  155.2886 H   0  0  0  0  0  0  0  0  0  0  0  0  # atno 10764 bound_to 10752
  154.5436  135.5753  153.6919 H   0  0  0  0  0  0  0  0  0  0  0  0  # atno 10765 bound_to 10752
  140.3323  134.2424  155.7700 H   0  0  0  0  0  0  0  0  0  0  0  0  # atno 11005 bound_to 11000
  146.3283  140.2993  142.8620 LP  0  0  0  0  0  0  0  0  0  0  0  0  # atno 17320 bound_to 7965
  144.9441  140.8110  143.5612 LP  0  0  0  0  0  0  0  0  0  0  0  0  # atno 17321 bound_to 7965
  140.1499  143.4367  152.2138 LP  0  0  0  0  0  0  0  0  0  0  0  0  # atno 17342 bound_to 10162
  139.5574  144.7382  151.4254 LP  0  0  0  0  0  0  0  0  0  0  0  0  # atno 17343 bound_to 10162
  156.8706  130.9523  151.3609 LP  0  0  0  0  0  0  0  0  0  0  0  0  # atno 17370 bound_to 10713
  157.6230  130.8670  149.9141 LP  0  0  0  0  0  0  0  0  0  0  0  0  # atno 17371 bound_to 10713
  141.2060  133.7845  157.0201 LP  0  0  0  0  0  0  0  0  0  0  0  0  # atno 17394 bound_to 11000
  140.0850  134.9626  157.1685 LP  0  0  0  0  0  0  0  0  0  0  0  0  # atno 17395 bound_to 11000

$$$$
