#       Name:                AV-unprocessed.smi:1691
#       Creating user name   scv26
#       Creation time:       Fri Mar 27 07:53:23 2020


#       File generated by GOLD software.
#

@<TRIPOS>MOLECULE
AV-unprocessed.smi:1691
    49    50     1
SMALL
NO_CHARGES


@<TRIPOS>ATOM
      1 ****        -3.7039   0.0155  -2.0955 C.3            1 S1                 0.0000
      2 ****        -3.0512   0.6410  -0.8476 C.3            1 S1                 0.0000
      3 ****        -3.5233   2.1036  -0.7209 C.3            1 S1                 0.0000
      4 ****        -1.4978   0.5295  -0.8514 C.3            1 S1                 0.0000
      5 ****        -1.0038  -0.9355  -1.0231 C.3            1 S1                 0.0000
      6 ****         0.4494  -1.0482  -1.1117 N.am           1 S1                 0.0000
      7 ****         1.2126  -1.8851  -0.3945 C.2            1 S1                 0.0000
      8 ****         0.7644  -2.6731   0.4378 O.2            1 S1                 0.0000
      9 ****         2.5126  -1.7376  -0.6957 N.am           1 S1                 0.0000
     10 ****         3.6076  -2.4326  -0.1244 C.2            1 S1                 0.0000
     11 ****         3.6079  -3.4562   0.8683 C.2            1 S1                 0.0000
     12 ****         4.8408  -3.8571   1.1429 N.2            1 S1                 0.0000
     13 ****         5.6242  -3.1047   0.3380 N.pl3          1 S1                 0.0000
     14 ****         4.9148  -2.2253  -0.4498 C.2            1 S1                 0.0000
     15 ****        -0.9371   1.2255   0.3503 N.4            1 S1                 1.0000
     16 ****        -0.9536   0.4641   1.6245 C.3            1 S1                 0.0000
     17 ****        -0.5792   1.3914   2.7923 C.3            1 S1                 0.0000
     18 ****         0.6911   1.9832   2.5443 O.3            1 S1                 0.0000
     19 ****         0.6904   2.7839   1.3679 C.3            1 S1                 0.0000
     20 ****         0.3643   1.9082   0.1466 C.3            1 S1                 0.0000
     21 ****         6.6297  -3.2026   0.3379 H              1 S1                 0.0000
     22 ****        -3.2899   0.4344  -3.0133 H              1 S1                 0.0000
     23 ****        -4.7794   0.1952  -2.1081 H              1 S1                 0.0000
     24 ****        -3.5735  -1.0658  -2.1271 H              1 S1                 0.0000
     25 ****        -3.4370   0.0990   0.0164 H              1 S1                 0.0000
     26 ****        -3.1370   2.7162  -1.5361 H              1 S1                 0.0000
     27 ****        -3.2057   2.5571   0.2180 H              1 S1                 0.0000
     28 ****        -4.6115   2.1690  -0.7474 H              1 S1                 0.0000
     29 ****        -1.1595   1.0842  -1.7282 H              1 S1                 0.0000
     30 ****        -1.4112  -1.5635  -0.2294 H              1 S1                 0.0000
     31 ****        -1.3810  -1.3535  -1.9552 H              1 S1                 0.0000
     32 ****         0.9098  -0.4442  -1.7770 H              1 S1                 0.0000
     33 ****         2.7452  -1.0531  -1.4002 H              1 S1                 0.0000
     34 ****         2.7827  -3.9164   1.3912 H              1 S1                 0.0000
     35 ****         5.3889  -1.5519  -1.1485 H              1 S1                 0.0000
     36 ****        -1.9402   0.0353   1.7985 H              1 S1                 0.0000
     37 ****        -0.2461  -0.3625   1.5856 H              1 S1                 0.0000
     38 ****        -1.3346   2.1665   2.9322 H              1 S1                 0.0000
     39 ****        -0.5290   0.8236   3.7215 H              1 S1                 0.0000
     40 ****        -0.0300   3.5974   1.4679 H              1 S1                 0.0000
     41 ****         1.6730   3.2416   1.2504 H              1 S1                 0.0000
     42 ****         1.1640   1.1835   0.0021 H              1 S1                 0.0000
     43 ****         0.3259   2.5303  -0.7481 H              1 S1                 0.0000
     44 ****        -1.5825   1.9878   0.5002 H              1 S1                 0.0000
     45 ****        -0.2200  -2.7129   0.6093 LP             1 S1                 0.0000
     46 ****         1.3846  -3.2735   0.9426 LP             1 S1                 0.0000
     47 ****         5.1268  -4.5573   1.7970 LP             1 S1                 0.0000
     48 ****         1.3699   1.2565   2.4388 LP             1 S1                 0.0000
     49 ****         0.9366   2.5580   3.3249 LP             1 S1                 0.0000
@<TRIPOS>BOND
    1    1    2 1     
    2    1   22 1     
    3    1   23 1     
    4    1   24 1     
    5    2    3 1     
    6    2    4 1     
    7    2   25 1     
    8    3   26 1     
    9    3   27 1     
   10    3   28 1     
   11    4    5 1     
   12    4   15 1     
   13    4   29 1     
   14    5    6 1     
   15    5   30 1     
   16    5   31 1     
   17    6    7 am    
   18    6   32 1     
   19    7    8 2     
   20    7    9 am    
   21    9   10 1     
   22    9   33 1     
   23   10   14 2     
   24   10   11 1     
   25   11   12 2     
   26   11   34 1     
   27   12   13 1     
   28   13   21 1     
   29   13   14 1     
   30   14   35 1     
   31   15   20 1     
   32   15   16 1     
   33   15   44 1     
   34   16   17 1     
   35   16   36 1     
   36   16   37 1     
   37   17   18 1     
   38   17   38 1     
   39   17   39 1     
   40   18   19 1     
   41   19   20 1     
   42   19   40 1     
   43   19   41 1     
   44   20   42 1     
   45   20   43 1     
   46    8   45 1     
   47    8   46 1     
   48   12   47 1     
   49   18   48 1     
   50   18   49 1     
@<TRIPOS>SUBSTRUCTURE
      1 S1             1
@<TRIPOS>SET
LONE_PAIRS      STATIC     ATOMS    <user>   **** ""
5 45 46 47 48 49
DONOR_HYDROGENS      STATIC     ATOMS    <user>   **** ""
4 32 33 21 44
ATOM$BLUE        STATIC     ATOMS    COLORGROUP SYSTEM
5 45 46 47 48 49
ATOM$RED        STATIC     ATOMS    COLORGROUP SYSTEM
4 32 33 21 44
