#       Name:                AV-unprocessed.smi:155
#       Creating user name   scv26
#       Creation time:       Thu Mar 26 18:53:31 2020


#       File generated by GOLD software.
#

@<TRIPOS>MOLECULE
AV-unprocessed.smi:155
    71    74     1
SMALL
NO_CHARGES


@<TRIPOS>ATOM
      1 ****        -3.2645   1.0396   1.0547 C.3            1 S1                 0.0000
      2 ****        -2.8274   1.7530  -0.1405 N.3            1 S1                 0.0000
      3 ****        -2.7430   3.1707   0.1822 C.3            1 S1                 0.0000
      4 ****        -3.7635   1.5605  -1.2488 C.3            1 S1                 0.0000
      5 ****        -3.5820   0.1832  -1.9209 C.3            1 S1                 0.0000
      6 ****        -2.2668   0.0681  -2.6037 N.4            1 S1                 1.0000
      7 ****        -2.1856   0.8586  -3.8671 C.3            1 S1                 0.0000
      8 ****        -0.9060   0.6100  -4.6937 C.3            1 S1                 0.0000
      9 ****         0.4012   0.7437  -3.8894 C.3            1 S1                 0.0000
     10 ****         0.4503  -0.1531  -2.7295 N.pl3          1 S1                 0.0000
     11 ****         0.9523   0.3157  -1.5532 C.ar           1 S1                 0.0000
     12 ****         1.9564   1.2306  -1.6098 N.ar           1 S1                 0.0000
     13 ****         2.4838   1.7369  -0.4925 C.ar           1 S1                 0.0000
     14 ****         2.1594   1.4757   0.7734 N.ar           1 S1                 0.0000
     15 ****         1.1530   0.5594   0.8453 C.ar           1 S1                 0.0000
     16 ****         0.4998  -0.0696  -0.2543 C.ar           1 S1                 0.0000
     17 ****        -0.4782  -0.9350   0.2255 N.2            1 S1                 0.0000
     18 ****        -0.3944  -0.8383   1.5233 C.2            1 S1                 0.0000
     19 ****         0.5609   0.0373   1.9819 N.pl3          1 S1                 0.0000
     20 ****         0.8748   0.3382   3.3689 C.3            1 S1                 0.0000
     21 ****         1.7424  -0.7358   4.0635 C.3            1 S1                 0.0000
     22 ****         1.0128  -1.9362   4.2333 O.3            1 S1                 0.0000
     23 ****         3.1036  -1.0219   3.3874 C.3            1 S1                 0.0000
     24 ****         4.0203  -2.0165   4.1127 C.3            1 S1                 0.0000
     25 ****         4.7568  -2.7308   2.9858 C.3            1 S1                 0.0000
     26 ****         4.2529  -2.0513   1.7133 C.3            1 S1                 0.0000
     27 ****         2.9758  -1.5573   2.0780 O.3            1 S1                 0.0000
     28 ****        -0.2376  -1.4453  -2.7935 C.3            1 S1                 0.0000
     29 ****        -1.7844  -1.3361  -2.7276 C.3            1 S1                 0.0000
     30 ****        -3.2963  -0.0366   0.8900 H              1 S1                 0.0000
     31 ****        -4.2554   1.3653   1.3742 H              1 S1                 0.0000
     32 ****        -2.5699   1.2173   1.8765 H              1 S1                 0.0000
     33 ****        -2.3891   3.7404  -0.6778 H              1 S1                 0.0000
     34 ****        -2.0379   3.3370   0.9977 H              1 S1                 0.0000
     35 ****        -3.7133   3.5699   0.4818 H              1 S1                 0.0000
     36 ****        -4.7869   1.6713  -0.8867 H              1 S1                 0.0000
     37 ****        -3.6260   2.3466  -1.9911 H              1 S1                 0.0000
     38 ****        -3.7013  -0.6020  -1.1753 H              1 S1                 0.0000
     39 ****        -4.3779   0.0160  -2.6475 H              1 S1                 0.0000
     40 ****        -3.0518   0.6363  -4.4915 H              1 S1                 0.0000
     41 ****        -2.2397   1.9194  -3.6241 H              1 S1                 0.0000
     42 ****        -0.9532  -0.3687  -5.1719 H              1 S1                 0.0000
     43 ****        -0.8809   1.3218  -5.5193 H              1 S1                 0.0000
     44 ****         1.2565   0.5315  -4.5313 H              1 S1                 0.0000
     45 ****         0.4954   1.7841  -3.5755 H              1 S1                 0.0000
     46 ****         3.2778   2.4555  -0.6331 H              1 S1                 0.0000
     47 ****        -1.0309  -1.4063   2.1859 H              1 S1                 0.0000
     48 ****         1.3868   1.3004   3.4051 H              1 S1                 0.0000
     49 ****        -0.0628   0.4742   3.9094 H              1 S1                 0.0000
     50 ****         1.9527  -0.3731   5.0703 H              1 S1                 0.0000
     51 ****         0.2504  -1.7518   4.7599 H              1 S1                 0.0000
     52 ****         3.6398  -0.0758   3.2896 H              1 S1                 0.0000
     53 ****         4.7018  -1.5035   4.7921 H              1 S1                 0.0000
     54 ****         3.4563  -2.7424   4.6989 H              1 S1                 0.0000
     55 ****         5.8408  -2.6646   3.0821 H              1 S1                 0.0000
     56 ****         4.4851  -3.7869   2.9793 H              1 S1                 0.0000
     57 ****         4.8978  -1.2157   1.4368 H              1 S1                 0.0000
     58 ****         4.1928  -2.7335   0.8653 H              1 S1                 0.0000
     59 ****         0.0460  -1.9275  -3.7296 H              1 S1                 0.0000
     60 ****         0.1337  -2.1153  -2.0178 H              1 S1                 0.0000
     61 ****        -2.1103  -1.9186  -1.8656 H              1 S1                 0.0000
     62 ****        -2.2460  -1.8115  -3.5940 H              1 S1                 0.0000
     63 ****        -1.6100   0.4954  -1.9655 H              1 S1                 0.0000
     64 ****        -1.9378   1.3968  -0.4267 LP             1 S1                 0.0000
     65 ****         2.3042   1.5279  -2.4990 LP             1 S1                 0.0000
     66 ****         2.5975   1.8972   1.5674 LP             1 S1                 0.0000
     67 ****        -1.1054  -1.5042  -0.3062 LP             1 S1                 0.0000
     68 ****         1.5841  -2.6160   4.6933 LP             1 S1                 0.0000
     69 ****         0.7295  -2.2878   3.3410 LP             1 S1                 0.0000
     70 ****         2.6877  -0.8430   1.4402 LP             1 S1                 0.0000
     71 ****         2.3051  -2.2991   2.0729 LP             1 S1                 0.0000
@<TRIPOS>BOND
    1    1    2 1     
    2    1   30 1     
    3    1   31 1     
    4    1   32 1     
    5    2    3 1     
    6    2    4 1     
    7    3   33 1     
    8    3   34 1     
    9    3   35 1     
   10    4    5 1     
   11    4   36 1     
   12    4   37 1     
   13    5    6 1     
   14    5   38 1     
   15    5   39 1     
   16    6   29 1     
   17    6    7 1     
   18    6   63 1     
   19    7    8 1     
   20    7   40 1     
   21    7   41 1     
   22    8    9 1     
   23    8   42 1     
   24    8   43 1     
   25    9   10 1     
   26    9   44 1     
   27    9   45 1     
   28   10   11 1     
   29   10   28 1     
   30   11   16 ar    
   31   11   12 ar    
   32   12   13 ar    
   33   13   14 ar    
   34   13   46 1     
   35   14   15 ar    
   36   15   19 1     
   37   15   16 ar    
   38   16   17 1     
   39   17   18 2     
   40   18   19 1     
   41   18   47 1     
   42   19   20 1     
   43   20   21 1     
   44   20   48 1     
   45   20   49 1     
   46   21   22 1     
   47   21   23 1     
   48   21   50 1     
   49   22   51 1     
   50   23   27 1     
   51   23   24 1     
   52   23   52 1     
   53   24   25 1     
   54   24   53 1     
   55   24   54 1     
   56   25   26 1     
   57   25   55 1     
   58   25   56 1     
   59   26   27 1     
   60   26   57 1     
   61   26   58 1     
   62   28   29 1     
   63   28   59 1     
   64   28   60 1     
   65   29   61 1     
   66   29   62 1     
   67    2   64 1     
   68   12   65 1     
   69   14   66 1     
   70   17   67 1     
   71   22   68 1     
   72   22   69 1     
   73   27   70 1     
   74   27   71 1     
@<TRIPOS>SUBSTRUCTURE
      1 S1             1
@<TRIPOS>SET
LONE_PAIRS      STATIC     ATOMS    <user>   **** ""
8 64 65 66 67 68 69 70 71
DONOR_HYDROGENS      STATIC     ATOMS    <user>   **** ""
2 63 51
ATOM$BLUE        STATIC     ATOMS    COLORGROUP SYSTEM
8 64 65 66 67 68 69 70 71
ATOM$RED        STATIC     ATOMS    COLORGROUP SYSTEM
2 63 51
