AV-unprocessed.smi:3164|AV-procd|sdf|12082|dock4
  -GOLD-   2272017513D 1   1.00000     0.00000
 Structure written by MMmdl.
 40 41  0  0  0  0  0  0  0  0  3 V2000
  154.6785  141.2350  160.5641 C   0  0  0  0  0  0  0  0  0  0  0  0
  154.0503  142.5701  160.4691 N   0  3  2  0  0  0  0  0  0  0  0  0
  153.1168  142.8414  161.5857 C   0  0  0  0  0  0  0  0  0  0  0  0
  152.5238  144.2534  161.4529 C   0  0  0  0  0  0  0  0  0  0  0  0
  151.8868  144.3822  160.1871 O   0  0  0  0  0  0  0  0  0  0  0  0
  152.7938  144.2216  159.0998 C   0  0  2  0  0  0  0  0  0  0  0  0
  152.0167  144.4629  157.7968 C   0  0  0  0  0  0  0  0  0  0  0  0
  151.0449  143.3789  157.5525 N   0  3  0  0  0  0  0  0  0  0  0  0
  151.5736  142.2462  156.7657 C   0  0  0  0  0  0  0  0  0  0  0  0
  150.4496  141.4905  156.0369 C   0  0  0  0  0  0  0  0  0  0  0  0
  150.8526  140.0848  155.6229 C   0  0  0  0  0  0  0  0  0  0  0  0
  151.5508  139.2449  156.5163 C   0  0  0  0  0  0  0  0  0  0  0  0
  151.8835  137.9432  156.0931 C   0  0  0  0  0  0  0  0  0  0  0  0
  151.5047  137.5329  154.8005 C   0  0  0  0  0  0  0  0  0  0  0  0
  150.8099  138.4462  153.9835 C   0  0  0  0  0  0  0  0  0  0  0  0
  150.4841  139.6957  154.3804 N   0  0  0  0  0  0  0  0  0  0  0  0
  153.3904  142.8006  159.1628 C   0  0  0  0  0  0  0  0  0  0  0  0
  153.9310  140.4437  160.4933 H   0  0  0  0  0  0  0  0  0  0  0  0
  155.2047  141.1247  161.5130 H   0  0  0  0  0  0  0  0  0  0  0  0
  155.4042  141.0936  159.7626 H   0  0  0  0  0  0  0  0  0  0  0  0
  152.3164  142.0995  161.5833 H   0  0  0  0  0  0  0  0  0  0  0  0
  153.6406  142.7457  162.5376 H   0  0  0  0  0  0  0  0  0  0  0  0
  151.7882  144.4277  162.2382 H   0  0  0  0  0  0  0  0  0  0  0  0
  153.2968  145.0155  161.5652 H   0  0  0  0  0  0  0  0  0  0  0  0
  153.5962  144.9578  159.1800 H   0  0  0  0  0  0  0  0  0  0  0  0
  151.4776  145.4097  157.8494 H   0  0  0  0  0  0  0  0  0  0  0  0
  152.7091  144.5317  156.9566 H   0  0  0  0  0  0  0  0  0  0  0  0
  150.7450  143.0172  158.4475 H   0  0  0  0  0  0  0  0  0  0  0  0
  152.2968  142.6254  156.0427 H   0  0  0  0  0  0  0  0  0  0  0  0
  152.1083  141.5597  157.4238 H   0  0  0  0  0  0  0  0  0  0  0  0
  149.5611  141.4389  156.6680 H   0  0  0  0  0  0  0  0  0  0  0  0
  150.1538  142.0487  155.1477 H   0  0  0  0  0  0  0  0  0  0  0  0
  151.8247  139.5859  157.5042 H   0  0  0  0  0  0  0  0  0  0  0  0
  152.4175  137.2713  156.7486 H   0  0  0  0  0  0  0  0  0  0  0  0
  151.7423  136.5418  154.4430 H   0  0  0  0  0  0  0  0  0  0  0  0
  150.5028  138.1650  152.9872 H   0  0  0  0  0  0  0  0  0  0  0  0
  154.1158  142.6642  158.3594 H   0  0  0  0  0  0  0  0  0  0  0  0
  152.6063  142.0556  159.0162 H   0  0  0  0  0  0  0  0  0  0  0  0
  150.2386  143.7569  157.0751 H   0  0  0  0  0  0  0  0  0  0  0  0
  154.7969  143.2468  160.5437 H   0  0  0  0  0  0  0  0  0  0  0  0
  1  2  1  0  0  0  0
  1 18  1  0  0  0  0
  1 19  1  0  0  0  0
  1 20  1  0  0  0  0
  2 17  1  0  0  0  0
  2  3  1  0  0  0  0
  2 40  1  0  0  0  0
  3  4  1  0  0  0  0
  3 21  1  0  0  0  0
  3 22  1  0  0  0  0
  4  5  1  0  0  0  0
  4 23  1  0  0  0  0
  4 24  1  0  0  0  0
  5  6  1  0  0  0  0
  6  7  1  0  0  0  0
  6 17  1  0  0  0  0
  6 25  1  0  0  0  0
  7  8  1  0  0  0  0
  7 26  1  0  0  0  0
  7 27  1  0  0  0  0
  8  9  1  0  0  0  0
  8 28  1  0  0  0  0
  8 39  1  0  0  0  0
  9 10  1  0  0  0  0
  9 29  1  0  0  0  0
  9 30  1  0  0  0  0
 10 11  1  0  0  0  0
 10 31  1  0  0  0  0
 10 32  1  0  0  0  0
 11 16  1  0  0  0  0
 11 12  2  0  0  0  0
 12 13  1  0  0  0  0
 12 33  1  0  0  0  0
 13 14  2  0  0  0  0
 13 34  1  0  0  0  0
 14 15  1  0  0  0  0
 14 35  1  0  0  0  0
 15 16  2  0  0  0  0
 15 36  1  0  0  0  0
 17 37  1  0  0  0  0
 17 38  1  0  0  0  0
M  CHG  1   2   1
M  CHG  1   8   1
M  END
> <s_m_source_file>
AV-unprocessed.smi

> <i_m_source_file_index>
3164

> <i_lp_mmshare_version>
43012

> <i_f3d_flags>
0

> <s_epik_input>
W0NIM11OMVtDSDJdW0NIMl1PW0NASF0oW0NIMl0xKVtDSDJdW05IXVtDSDJdW0NIMl1jMltjSF1bY0hdW2NIXVtjSF1uMg==

> <s_epik_cmdline>
J2VwaWtfcHl0aG9uJywgJy1waCcsICc3LjAnLCAnLXRuJywgJzgnLCAnLW1hJywgJzIwMCcsICctbWV0YWxfYmluZGluZycsICctaW1hZScsICc8aW5maWxlLm1hZT4nLCAnLW9tYWUnLCAnPG91dGZpbGUubWFlPic=

> <r_epik_Ionization_Penalty>
0.294944

> <r_epik_Ionization_Penalty_Charging>
0.29381

> <r_epik_Ionization_Penalty_Neutral>
0.00113372

> <r_epik_State_Penalty>
0.271365

> <r_epik_Charging_Adjusted_Penalty>
0.565175

> <i_epik_Tot_Q>
2

> <i_epik_Tot_abs_Q>
2

> <r_epik_Metal_State_Penalty>
0.271365

> <b_epik_Metal_Only>
0

> <s_lp_Force_Field>
OPLS_2005

> <r_lp_Energy>
22.5841

> <b_lp_Chiralities_Consistent>
1

> <s_lp_Variant>
AV-unprocessed.smi:3164-4

> <Gold.Version>
5.8.1

> <Gold.Id.Protein>
6NUR|6NUR_protein|mol2

> <Gold.PLP.Fitness>
53.7035

> <Gold.PLP.PLP>
-41.2807

> <Gold.PLP.part.hbond>
-2.0000

> <Gold.PLP.part.metal>
0.0000

> <Gold.PLP.part.buried>
-6.1795

> <Gold.PLP.part.nonpolar>
-33.8072

> <Gold.PLP.part.repulsive>
0.2400

> <Gold.PLP.ligand.clash>
0.0000

> <Gold.PLP.ligand.torsion>
0.6718

> <Gold.PLP.Chemscore.Hbond>
2.7000

> <Gold.PLP.Chemscore.CHOScore>
1.8758

> <Gold.PLP.Chemscore.Metal>
0.0000

> <Gold.Chemscore.Hbonds>
donor molecule, donor type, donor heavy atom, donor atom, acceptor molecule, acceptor atom, score
      L1  H     8    39       P1  8028  1.33
      P1  H  7989  7998       L1    16  0.80
      L1  C    15    36       P1  7948  0.45
      L1  C    15    36       P1  7949  0.29
      L1  C    15    36       P1  7957  0.33

> <Gold.PLP.Chemscore.Internal.Correction>
0.0390

> <Gold.Rescore>
     Score         DG    S(hbond)    S(metal)    S(lipo)     H(rot)  DE(clash)    DE(int)     intcor
     20.39     -21.14       1.90        0.00     115.66       1.65       0.07       0.68       ----

> <Gold.Chemscore.Fitness>
20.3895

> <Gold.Chemscore.DG>
-21.1355

> <Gold.Chemscore.ZeroCoef>
-5.4800

> <Gold.Chemscore.Hbond>
1.8968

> <Gold.Chemscore.Metal>
0.0000

> <Gold.Chemscore.Lipo>
115.6611

> <Gold.Chemscore.Internal_Hbond>
0.0000

> <Gold.Chemscore.DEClash>
0.0699

> <Gold.Chemscore.DEInternal>
0.6761

> <Gold.Chemscore.Rot>
1.6454

> <Gold.Chemscore.Internal.Correction>
   9.000000E+99

> <Gold.Chemscore.Hbonds>
donor molecule, donor type, donor heavy atom, donor atom, acceptor molecule, acceptor atom, score
      L1  H     8    39       P1  8028  0.66
      P1  H  7989  7998       L1    16  0.07

> <Gold.Chemscore.Hbond.Weighted>
-6.3354

> <Gold.Chemscore.Metal.Weighted>
-0.0000

> <Gold.Chemscore.Lipo.Weighted>
-13.5324

> <Gold.Chemscore.Internal_Hbond.Weighted>
0.0000

> <Gold.Chemscore.DEClash.Weighted>
0.0699

> <Gold.Chemscore.DEInternal.Weighted>
0.6761

> <Gold.Chemscore.Rot.Weighted>
4.2122

> <Gold.Chemscore.Internal.Correction.Weighted>
   9.000000E+99

> <Gold.Protein.RotatedTorsions>
[ 6907 6896 6895 6894 ] final   80.72 input  -60.11 | X-H torsion
[ 7974 7965 7964 7962 ] final  -86.72 input  175.53 | X-H torsion
[ 8008 7997 7996 7995 ] final -133.87 input   59.86 | X-H torsion
[ 10167 10162 10161 10158 ] final  144.14 input  -65.29 | X-H torsion
[ 10718 10713 10712 10709 ] final -116.09 input   66.30 | X-H torsion
[ 10763 10752 10751 10750 ] final   15.96 input  -60.55 | X-H torsion
[ 11005 11000 10999 10996 ] final  169.99 input  -57.11 | X-H torsion

> <Gold.Protein.ActiveResidues>
 VAL166  LYS551  ARG553  GLY616  TRP617  ASP618  TYR619  PRO620  LYS621  CYS622 
 ASP623  PHE694  ASN695  SER759  ASP760  ASP761  ALA762  ILE779  LEU786  VAL792 
 PHE793  MET794  SER795  GLU796  ALA797  LYS798  CYS799  TRP800  GLU811  SER814 

> <Gold.Protein.RotatedAtoms>
  152.5244  134.3315  159.9184 H   0  0  0  0  0  0  0  0  0  0  0  0  # atno 6907 bound_to 6896
  151.3264  133.4012  159.2666 H   0  0  0  0  0  0  0  0  0  0  0  0  # atno 6908 bound_to 6896
  150.9917  134.9267  159.7961 H   0  0  0  0  0  0  0  0  0  0  0  0  # atno 6909 bound_to 6896
  145.4762  140.9558  143.1890 H   0  0  0  0  0  0  0  0  0  0  0  0  # atno 7974 bound_to 7965
  155.3527  140.0478  157.3046 H   0  0  0  0  0  0  0  0  0  0  0  0  # atno 8008 bound_to 7997
  154.5219  140.2228  155.8924 H   0  0  0  0  0  0  0  0  0  0  0  0  # atno 8009 bound_to 7997
  156.1698  140.3098  155.8960 H   0  0  0  0  0  0  0  0  0  0  0  0  # atno 8010 bound_to 7997
  139.4953  144.5992  151.6517 H   0  0  0  0  0  0  0  0  0  0  0  0  # atno 10167 bound_to 10162
  156.0940  130.6116  150.8991 H   0  0  0  0  0  0  0  0  0  0  0  0  # atno 10718 bound_to 10713
  153.1475  135.6772  153.8932 H   0  0  0  0  0  0  0  0  0  0  0  0  # atno 10763 bound_to 10752
  153.8369  135.3110  155.3424 H   0  0  0  0  0  0  0  0  0  0  0  0  # atno 10764 bound_to 10752
  154.7837  135.4874  153.9984 H   0  0  0  0  0  0  0  0  0  0  0  0  # atno 10765 bound_to 10752
  140.3036  134.7575  157.3936 H   0  0  0  0  0  0  0  0  0  0  0  0  # atno 11005 bound_to 11000
  144.7916  139.6317  143.7111 LP  0  0  0  0  0  0  0  0  0  0  0  0  # atno 17320 bound_to 7965
  146.2368  139.5921  142.9518 LP  0  0  0  0  0  0  0  0  0  0  0  0  # atno 17321 bound_to 7965
  140.5638  144.0224  150.6182 LP  0  0  0  0  0  0  0  0  0  0  0  0  # atno 17342 bound_to 10162
  140.3319  143.3072  152.0678 LP  0  0  0  0  0  0  0  0  0  0  0  0  # atno 17343 bound_to 10162
  157.6096  131.0937  150.8818 LP  0  0  0  0  0  0  0  0  0  0  0  0  # atno 17370 bound_to 10713
  156.8960  130.5229  149.5284 LP  0  0  0  0  0  0  0  0  0  0  0  0  # atno 17371 bound_to 10713
  140.1087  134.5375  155.8286 LP  0  0  0  0  0  0  0  0  0  0  0  0  # atno 17394 bound_to 11000
  141.2123  133.6717  156.6648 LP  0  0  0  0  0  0  0  0  0  0  0  0  # atno 17395 bound_to 11000

$$$$
