AV-unprocessed.smi:3136|AV-procd|sdf|11949|dock6
  -GOLD-   2272017343D 1   1.00000     0.00000
 Structure written by MMmdl.
 40 40  0  0  0  0  0  0  0  0  2 V2000
  145.6662  133.2012  151.4381 C   0  0  0  0  0  0  0  0  0  0  0  0
  145.8310  134.2414  152.5545 C   0  0  0  0  0  0  0  0  0  0  0  0
  146.2498  135.5350  152.0265 N   0  0  0  0  0  0  0  0  0  0  0  0
  145.4708  136.6244  151.9428 C   0  0  0  0  0  0  0  0  0  0  0  0
  144.2967  136.6442  152.3140 O   0  0  0  0  0  0  0  0  0  0  0  0
  146.1293  137.8729  151.3462 C   0  0  0  0  0  0  0  0  0  0  0  0
  146.7225  138.8193  152.4043 C   0  0  0  0  0  0  0  0  0  0  0  0
  148.1592  138.5451  152.6120 N   0  3  0  0  0  0  0  0  0  0  0  0
  148.6588  138.8018  153.9832 C   0  0  1  0  0  0  0  0  0  0  0  0
  148.0312  137.7811  154.9471 C   0  0  0  0  0  0  0  0  0  0  0  0
  150.2113  138.7987  154.0495 C   0  0  2  0  0  0  0  0  0  0  0  0
  150.8138  137.4434  154.4639 C   0  0  0  0  0  0  0  0  0  0  0  0
  150.7536  139.8933  154.8486 N   0  0  0  0  0  0  0  0  0  0  0  0
  151.6992  139.8263  155.8519 C   0  0  0  0  0  0  0  0  0  0  0  0
  151.9057  141.0968  156.3067 C   0  0  0  0  0  0  0  0  0  0  0  0
  151.0330  141.8873  155.5092 C   0  0  0  0  0  0  0  0  0  0  0  0
  150.3488  141.1666  154.6356 N   0  0  0  0  0  0  0  0  0  0  0  0
  145.4058  132.2268  151.8523 H   0  0  0  0  0  0  0  0  0  0  0  0
  146.5887  133.0841  150.8682 H   0  0  0  0  0  0  0  0  0  0  0  0
  144.8757  133.4853  150.7428 H   0  0  0  0  0  0  0  0  0  0  0  0
  144.9027  134.3439  153.1194 H   0  0  0  0  0  0  0  0  0  0  0  0
  146.5882  133.9032  153.2622 H   0  0  0  0  0  0  0  0  0  0  0  0
  147.2029  135.6050  151.6997 H   0  0  0  0  0  0  0  0  0  0  0  0
  146.9125  137.5540  150.6567 H   0  0  0  0  0  0  0  0  0  0  0  0
  145.3837  138.4042  150.7530 H   0  0  0  0  0  0  0  0  0  0  0  0
  146.5907  139.8567  152.0957 H   0  0  0  0  0  0  0  0  0  0  0  0
  146.2012  138.6958  153.3549 H   0  0  0  0  0  0  0  0  0  0  0  0
  148.3180  137.5705  152.4001 H   0  0  0  0  0  0  0  0  0  0  0  0
  148.3113  139.7861  154.3016 H   0  0  0  0  0  0  0  0  0  0  0  0
  148.3731  137.9456  155.9693 H   0  0  0  0  0  0  0  0  0  0  0  0
  148.2818  136.7556  154.6735 H   0  0  0  0  0  0  0  0  0  0  0  0
  146.9439  137.8638  154.9487 H   0  0  0  0  0  0  0  0  0  0  0  0
  150.5579  138.9735  153.0297 H   0  0  0  0  0  0  0  0  0  0  0  0
  150.4521  136.6405  153.8212 H   0  0  0  0  0  0  0  0  0  0  0  0
  150.5674  137.1829  155.4933 H   0  0  0  0  0  0  0  0  0  0  0  0
  151.9011  137.4612  154.3838 H   0  0  0  0  0  0  0  0  0  0  0  0
  152.1428  138.8896  156.1563 H   0  0  0  0  0  0  0  0  0  0  0  0
  152.5781  141.4136  157.0903 H   0  0  0  0  0  0  0  0  0  0  0  0
  150.8791  142.9559  155.5383 H   0  0  0  0  0  0  0  0  0  0  0  0
  148.7033  139.1030  151.9682 H   0  0  0  0  0  0  0  0  0  0  0  0
  1  2  1  0  0  0  0
  1 18  1  0  0  0  0
  1 19  1  0  0  0  0
  1 20  1  0  0  0  0
  2  3  1  0  0  0  0
  2 21  1  0  0  0  0
  2 22  1  0  0  0  0
  3  4  1  0  0  0  0
  3 23  1  0  0  0  0
  4  5  2  0  0  0  0
  4  6  1  0  0  0  0
  6  7  1  0  0  0  0
  6 24  1  0  0  0  0
  6 25  1  0  0  0  0
  7  8  1  0  0  0  0
  7 26  1  0  0  0  0
  7 27  1  0  0  0  0
  8  9  1  0  0  0  0
  8 28  1  0  0  0  0
  8 40  1  0  0  0  0
  9 10  1  0  0  0  0
  9 11  1  0  0  0  0
  9 29  1  0  0  0  0
 10 30  1  0  0  0  0
 10 31  1  0  0  0  0
 10 32  1  0  0  0  0
 11 12  1  0  0  0  0
 11 13  1  0  0  0  0
 11 33  1  0  0  0  0
 12 34  1  0  0  0  0
 12 35  1  0  0  0  0
 12 36  1  0  0  0  0
 13 17  1  0  0  0  0
 13 14  1  0  0  0  0
 14 15  2  0  0  0  0
 14 37  1  0  0  0  0
 15 16  1  0  0  0  0
 15 38  1  0  0  0  0
 16 17  2  0  0  0  0
 16 39  1  0  0  0  0
M  CHG  1   8   1
M  END
> <s_m_source_file>
AV-unprocessed.smi

> <i_m_source_file_index>
3136

> <i_lp_mmshare_version>
43012

> <i_f3d_flags>
0

> <s_epik_input>
W0NIM11bQ0gyXVtOSF1DKD1PKVtDSDJdW0NIMl1bTkhdW0NASF0oW0NIM10pW0NASF0oW0NIM10pbjFbY0hdW2NIXVtjSF1uMQ==

> <s_epik_cmdline>
J2VwaWtfcHl0aG9uJywgJy1waCcsICc3LjAnLCAnLXRuJywgJzgnLCAnLW1hJywgJzIwMCcsICctbWV0YWxfYmluZGluZycsICctaW1hZScsICc8aW5maWxlLm1hZT4nLCAnLW9tYWUnLCAnPG91dGZpbGUubWFlPic=

> <r_lp_tautomer_probability>
1

> <r_epik_Ionization_Penalty>
0.00463447

> <r_epik_Ionization_Penalty_Charging>
0.00462393

> <r_epik_Ionization_Penalty_Neutral>
1.05394e-05

> <r_epik_State_Penalty>
-0

> <r_epik_Charging_Adjusted_Penalty>
0.00462393

> <i_epik_Tot_Q>
1

> <i_epik_Tot_abs_Q>
1

> <r_epik_Metal_State_Penalty>
-0

> <b_epik_Metal_Only>
0

> <s_lp_Force_Field>
OPLS_2005

> <r_lp_Energy>
10.5289

> <b_lp_Chiralities_Consistent>
1

> <s_lp_Variant>
AV-unprocessed.smi:3136-2

> <Gold.Version>
5.8.1

> <Gold.Id.Protein>
6NUR|6NUR_protein|mol2

> <Gold.PLP.Fitness>
44.4136

> <Gold.PLP.PLP>
-33.2140

> <Gold.PLP.part.hbond>
-4.0000

> <Gold.PLP.part.metal>
0.0000

> <Gold.PLP.part.buried>
-1.4051

> <Gold.PLP.part.nonpolar>
-29.2158

> <Gold.PLP.part.repulsive>
0.8177

> <Gold.PLP.ligand.clash>
0.0000

> <Gold.PLP.ligand.torsion>
2.0584

> <Gold.PLP.Chemscore.Hbond>
4.0000

> <Gold.PLP.Chemscore.CHOScore>
1.0000

> <Gold.PLP.Chemscore.Metal>
0.0000

> <Gold.Chemscore.Hbonds>
donor molecule, donor type, donor heavy atom, donor atom, acceptor molecule, acceptor atom, score
      L1  H     3    23       P1  7948  1.00
      L1  H     8    28       P1  7948  2.00
      L1  H     8    40       P1  7957  0.94
      L1  C    16    39       P1  8028  0.69

> <Gold.PLP.Chemscore.Internal.Correction>
0.3164

> <Gold.Rescore>
     Score         DG    S(hbond)    S(metal)    S(lipo)     H(rot)  DE(clash)    DE(int)     intcor
     14.82     -16.65       2.94        0.00      62.23       2.32       0.08       1.75       ----

> <Gold.Chemscore.Fitness>
14.8155

> <Gold.Chemscore.DG>
-16.6475

> <Gold.Chemscore.ZeroCoef>
-5.4800

> <Gold.Chemscore.Hbond>
2.9385

> <Gold.Chemscore.Metal>
0.0000

> <Gold.Chemscore.Lipo>
62.2334

> <Gold.Chemscore.Internal_Hbond>
0.0000

> <Gold.Chemscore.DEClash>
0.0825

> <Gold.Chemscore.DEInternal>
1.7494

> <Gold.Chemscore.Rot>
2.3159

> <Gold.Chemscore.Internal.Correction>
   9.000000E+99

> <Gold.Chemscore.Hbonds>
donor molecule, donor type, donor heavy atom, donor atom, acceptor molecule, acceptor atom, score
      L1  H     3    23       P1  7948  0.97
      L1  H     8    28       P1  7948  0.96
      L1  H     8    40       P1  7957  0.87

> <Gold.Chemscore.Hbond.Weighted>
-9.8147

> <Gold.Chemscore.Metal.Weighted>
-0.0000

> <Gold.Chemscore.Lipo.Weighted>
-7.2813

> <Gold.Chemscore.Internal_Hbond.Weighted>
0.0000

> <Gold.Chemscore.DEClash.Weighted>
0.0825

> <Gold.Chemscore.DEInternal.Weighted>
1.7494

> <Gold.Chemscore.Rot.Weighted>
5.9286

> <Gold.Chemscore.Internal.Correction.Weighted>
   9.000000E+99

> <Gold.Protein.RotatedTorsions>
[ 6907 6896 6895 6894 ] final -100.67 input  -60.11 | X-H torsion
[ 7974 7965 7964 7962 ] final -109.03 input  175.53 | X-H torsion
[ 8008 7997 7996 7995 ] final   36.28 input   59.86 | X-H torsion
[ 10167 10162 10161 10158 ] final -133.14 input  -65.29 | X-H torsion
[ 10718 10713 10712 10709 ] final  -17.89 input   66.30 | X-H torsion
[ 10763 10752 10751 10750 ] final  156.07 input  -60.55 | X-H torsion
[ 11005 11000 10999 10996 ] final   11.74 input  -57.11 | X-H torsion

> <Gold.Protein.ActiveResidues>
 VAL166  LYS551  ARG553  GLY616  TRP617  ASP618  TYR619  PRO620  LYS621  CYS622 
 ASP623  PHE694  ASN695  SER759  ASP760  ASP761  ALA762  ILE779  LEU786  VAL792 
 PHE793  MET794  SER795  GLU796  ALA797  LYS798  CYS799  TRP800  GLU811  SER814 

> <Gold.Protein.RotatedAtoms>
  150.7125  134.0851  159.3911 H   0  0  0  0  0  0  0  0  0  0  0  0  # atno 6907 bound_to 6896
  151.8836  135.0442  160.0500 H   0  0  0  0  0  0  0  0  0  0  0  0  # atno 6908 bound_to 6896
  152.2548  133.5210  159.5383 H   0  0  0  0  0  0  0  0  0  0  0  0  # atno 6909 bound_to 6896
  145.1856  140.8991  143.3454 H   0  0  0  0  0  0  0  0  0  0  0  0  # atno 7974 bound_to 7965
  155.1848  140.3303  155.4369 H   0  0  0  0  0  0  0  0  0  0  0  0  # atno 8008 bound_to 7997
  156.2464  140.1920  156.6894 H   0  0  0  0  0  0  0  0  0  0  0  0  # atno 8009 bound_to 7997
  154.6246  140.0590  156.9644 H   0  0  0  0  0  0  0  0  0  0  0  0  # atno 8010 bound_to 7997
  139.9013  143.6604  152.2594 H   0  0  0  0  0  0  0  0  0  0  0  0  # atno 10167 bound_to 10162
  156.5672  130.4740  149.6379 H   0  0  0  0  0  0  0  0  0  0  0  0  # atno 10718 bound_to 10713
  154.1785  135.2801  155.3059 H   0  0  0  0  0  0  0  0  0  0  0  0  # atno 10763 bound_to 10752
  154.6021  135.5526  153.7388 H   0  0  0  0  0  0  0  0  0  0  0  0  # atno 10764 bound_to 10752
  153.0144  135.6394  154.1924 H   0  0  0  0  0  0  0  0  0  0  0  0  # atno 10765 bound_to 10752
  140.4998  134.0757  155.7791 H   0  0  0  0  0  0  0  0  0  0  0  0  # atno 11005 bound_to 11000
  145.0092  139.3525  143.6128 LP  0  0  0  0  0  0  0  0  0  0  0  0  # atno 17320 bound_to 7965
  146.3445  139.9348  142.8749 LP  0  0  0  0  0  0  0  0  0  0  0  0  # atno 17321 bound_to 7965
  139.7023  144.7633  151.1252 LP  0  0  0  0  0  0  0  0  0  0  0  0  # atno 17342 bound_to 10162
  140.7706  143.5441  150.9278 LP  0  0  0  0  0  0  0  0  0  0  0  0  # atno 17343 bound_to 10162
  156.2746  130.7036  151.1844 LP  0  0  0  0  0  0  0  0  0  0  0  0  # atno 17370 bound_to 10713
  157.7356  131.0571  150.5461 LP  0  0  0  0  0  0  0  0  0  0  0  0  # atno 17371 bound_to 10713
  141.1441  133.9085  157.2256 LP  0  0  0  0  0  0  0  0  0  0  0  0  # atno 17394 bound_to 11000
  139.9720  135.0125  156.9536 LP  0  0  0  0  0  0  0  0  0  0  0  0  # atno 17395 bound_to 11000

$$$$
