AV-unprocessed.smi:1244|AV-procd|sdf|5223|dock3
  -GOLD-   22720 4323D 1   1.00000     0.00000
 Structure written by MMmdl.
 54 56  0  0  0  0  0  0  0  0  1 V2000
  149.0287  140.3215  154.6578 C   0  0  0  0  0  0  0  0  0  0  0  0
  149.9369  139.3729  155.4473 C   0  0  1  0  0  0  0  0  0  0  0  0
  149.4786  137.9079  155.3376 C   0  0  0  0  0  0  0  0  0  0  0  0
  150.3870  137.0000  156.0260 N   0  0  0  0  0  0  0  0  0  0  0  0
  149.9067  135.6221  155.9501 C   0  0  0  0  0  0  0  0  0  0  0  0
  150.5037  134.7913  154.7985 C   0  0  0  0  0  0  0  0  0  0  0  0
  149.4586  134.2170  153.9598 N   0  0  0  0  0  0  0  0  0  0  0  0
  149.0701  132.9344  153.9851 C   0  0  0  0  0  0  0  0  0  0  0  0
  149.5680  132.0874  154.7268 O   0  0  0  0  0  0  0  0  0  0  0  0
  148.0926  132.7055  153.0920 N   0  0  0  0  0  0  0  0  0  0  0  0
  147.4157  131.4835  152.8148 C   0  0  0  0  0  0  0  0  0  0  0  0
  147.9402  130.2334  153.2265 C   0  0  0  0  0  0  0  0  0  0  0  0
  147.2434  129.0541  152.9119 C   0  0  0  0  0  0  0  0  0  0  0  0
  146.0398  129.1651  152.1967 C   0  0  0  0  0  0  0  0  0  0  0  0
  145.5163  130.3474  151.8158 N   0  0  0  0  0  0  0  0  0  0  0  0
  146.1684  131.4953  152.1255 C   0  0  0  0  0  0  0  0  0  0  0  0
  145.5575  132.7033  151.7161 N   0  0  0  0  0  0  0  0  0  0  0  0
  144.9466  133.5942  152.6972 C   0  0  0  0  0  0  0  0  0  0  0  0
  144.7470  134.9153  151.9604 C   0  0  0  0  0  0  0  0  0  0  0  0
  145.9710  134.9689  151.0512 C   0  0  0  0  0  0  0  0  0  0  0  0
  146.2165  133.5010  150.6864 C   0  0  0  0  0  0  0  0  0  0  0  0
  151.7288  137.1592  155.4692 C   0  0  0  0  0  0  0  0  0  0  0  0
  152.2256  138.6184  155.5201 C   0  0  2  0  0  0  0  0  0  0  0  0
  152.6229  139.0757  156.9340 C   0  0  0  0  0  0  0  0  0  0  0  0
  151.2613  139.4933  154.9316 O   0  0  0  0  0  0  0  0  0  0  0  0
  148.0025  140.2760  155.0233 H   0  0  0  0  0  0  0  0  0  0  0  0
  149.0185  140.0673  153.5975 H   0  0  0  0  0  0  0  0  0  0  0  0
  149.3688  141.3531  154.7499 H   0  0  0  0  0  0  0  0  0  0  0  0
  149.9261  139.6804  156.4934 H   0  0  0  0  0  0  0  0  0  0  0  0
  148.4767  137.8151  155.7587 H   0  0  0  0  0  0  0  0  0  0  0  0
  149.4016  137.6259  154.2862 H   0  0  0  0  0  0  0  0  0  0  0  0
  150.1508  135.1188  156.8865 H   0  0  0  0  0  0  0  0  0  0  0  0
  148.8177  135.6140  155.8826 H   0  0  0  0  0  0  0  0  0  0  0  0
  151.1291  135.4110  154.1570 H   0  0  0  0  0  0  0  0  0  0  0  0
  151.1447  133.9997  155.1905 H   0  0  0  0  0  0  0  0  0  0  0  0
  148.9984  134.8419  153.3143 H   0  0  0  0  0  0  0  0  0  0  0  0
  147.8636  133.4734  152.4783 H   0  0  0  0  0  0  0  0  0  0  0  0
  148.8608  130.1592  153.7847 H   0  0  0  0  0  0  0  0  0  0  0  0
  147.6243  128.0889  153.2103 H   0  0  0  0  0  0  0  0  0  0  0  0
  145.4771  128.2826  151.9306 H   0  0  0  0  0  0  0  0  0  0  0  0
  144.0045  133.1903  153.0692 H   0  0  0  0  0  0  0  0  0  0  0  0
  145.6131  133.7503  153.5466 H   0  0  0  0  0  0  0  0  0  0  0  0
  143.8374  134.8751  151.3595 H   0  0  0  0  0  0  0  0  0  0  0  0
  144.6743  135.7705  152.6329 H   0  0  0  0  0  0  0  0  0  0  0  0
  145.8255  135.6037  150.1767 H   0  0  0  0  0  0  0  0  0  0  0  0
  146.8244  135.3565  151.6095 H   0  0  0  0  0  0  0  0  0  0  0  0
  147.2826  133.2810  150.6137 H   0  0  0  0  0  0  0  0  0  0  0  0
  145.7568  133.2785  149.7234 H   0  0  0  0  0  0  0  0  0  0  0  0
  152.4412  136.5266  155.9975 H   0  0  0  0  0  0  0  0  0  0  0  0
  151.7302  136.8235  154.4309 H   0  0  0  0  0  0  0  0  0  0  0  0
  153.1202  138.6892  154.9010 H   0  0  0  0  0  0  0  0  0  0  0  0
  153.4414  138.4686  157.3212 H   0  0  0  0  0  0  0  0  0  0  0  0
  151.7959  138.9934  157.6388 H   0  0  0  0  0  0  0  0  0  0  0  0
  152.9556  140.1137  156.9280 H   0  0  0  0  0  0  0  0  0  0  0  0
  1  2  1  0  0  0  0
  1 26  1  0  0  0  0
  1 27  1  0  0  0  0
  1 28  1  0  0  0  0
  2 25  1  0  0  0  0
  2  3  1  0  0  0  0
  2 29  1  0  0  0  0
  3  4  1  0  0  0  0
  3 30  1  0  0  0  0
  3 31  1  0  0  0  0
  4  5  1  0  0  0  0
  4 22  1  0  0  0  0
  5  6  1  0  0  0  0
  5 32  1  0  0  0  0
  5 33  1  0  0  0  0
  6  7  1  0  0  0  0
  6 34  1  0  0  0  0
  6 35  1  0  0  0  0
  7  8  1  0  0  0  0
  7 36  1  0  0  0  0
  8  9  2  0  0  0  0
  8 10  1  0  0  0  0
 10 11  1  0  0  0  0
 10 37  1  0  0  0  0
 11 16  1  0  0  0  0
 11 12  2  0  0  0  0
 12 13  1  0  0  0  0
 12 38  1  0  0  0  0
 13 14  2  0  0  0  0
 13 39  1  0  0  0  0
 14 15  1  0  0  0  0
 14 40  1  0  0  0  0
 15 16  2  0  0  0  0
 16 17  1  0  0  0  0
 17 21  1  0  0  0  0
 17 18  1  0  0  0  0
 18 19  1  0  0  0  0
 18 41  1  0  0  0  0
 18 42  1  0  0  0  0
 19 20  1  0  0  0  0
 19 43  1  0  0  0  0
 19 44  1  0  0  0  0
 20 21  1  0  0  0  0
 20 45  1  0  0  0  0
 20 46  1  0  0  0  0
 21 47  1  0  0  0  0
 21 48  1  0  0  0  0
 22 23  1  0  0  0  0
 22 49  1  0  0  0  0
 22 50  1  0  0  0  0
 23 24  1  0  0  0  0
 23 25  1  0  0  0  0
 23 51  1  0  0  0  0
 24 52  1  0  0  0  0
 24 53  1  0  0  0  0
 24 54  1  0  0  0  0
M  END
> <s_m_source_file>
AV-unprocessed.smi

> <i_m_source_file_index>
1244

> <i_lp_mmshare_version>
43012

> <i_f3d_flags>
0

> <s_epik_input>
W0NIM11bQ0BASF0xW0NIMl1OKFtDSDJdW0NASF0oTzEpW0NIM10pW0NIMl1bQ0gyXVtOSF1DKD1PKVtOSF1jMltjSF1bY0hdW2NIXW5jMk4zW0NIMl1bQ0gyXVtDSDJdW0NIMl0z

> <s_epik_cmdline>
J2VwaWtfcHl0aG9uJywgJy1waCcsICc3LjAnLCAnLXRuJywgJzgnLCAnLW1hJywgJzIwMCcsICctbWV0YWxfYmluZGluZycsICctaW1hZScsICc8aW5maWxlLm1hZT4nLCAnLW9tYWUnLCAnPG91dGZpbGUubWFlPic=

> <r_lp_tautomer_probability>
1

> <r_epik_Ionization_Penalty>
0.363951

> <r_epik_Ionization_Penalty_Charging>
0

> <r_epik_Ionization_Penalty_Neutral>
0.363951

> <r_epik_State_Penalty>
0.349372

> <r_epik_Charging_Adjusted_Penalty>
0.349372

> <i_epik_Tot_Q>
0

> <i_epik_Tot_abs_Q>
0

> <r_epik_Metal_State_Penalty>
0.333054

> <b_epik_Metal_Only>
0

> <s_lp_Force_Field>
OPLS_2005

> <r_lp_Energy>
51.4551

> <b_lp_Chiralities_Consistent>
1

> <s_lp_Variant>
AV-unprocessed.smi:1244-3

> <Gold.Version>
5.8.1

> <Gold.Id.Protein>
6NUR|6NUR_protein|mol2

> <Gold.PLP.Fitness>
42.6902

> <Gold.PLP.PLP>
-38.7574

> <Gold.PLP.part.hbond>
-2.0000

> <Gold.PLP.part.metal>
0.0000

> <Gold.PLP.part.buried>
-2.7863

> <Gold.PLP.part.nonpolar>
-32.8739

> <Gold.PLP.part.repulsive>
0.4818

> <Gold.PLP.ligand.clash>
0.0320

> <Gold.PLP.ligand.torsion>
1.1718

> <Gold.PLP.Chemscore.Hbond>
1.9600

> <Gold.PLP.Chemscore.CHOScore>
0.0000

> <Gold.PLP.Chemscore.Metal>
0.0000

> <Gold.Chemscore.Hbonds>
donor molecule, donor type, donor heavy atom, donor atom, acceptor molecule, acceptor atom, score
      L1  H     7    36       P1  7948  0.90
      P1  H  7989  7998       L1    25  1.00

> <Gold.PLP.Chemscore.Internal.Correction>
0.4282

> <Gold.Rescore>
     Score         DG    S(hbond)    S(metal)    S(lipo)     H(rot)  DE(clash)    DE(int)     intcor
     15.14     -17.56       1.61        0.00      91.12       1.55       0.06       2.36       ----

> <Gold.Chemscore.Fitness>
15.1444

> <Gold.Chemscore.DG>
-17.5647

> <Gold.Chemscore.ZeroCoef>
-5.4800

> <Gold.Chemscore.Hbond>
1.6127

> <Gold.Chemscore.Metal>
0.0000

> <Gold.Chemscore.Lipo>
91.1206

> <Gold.Chemscore.Internal_Hbond>
0.0000

> <Gold.Chemscore.DEClash>
0.0574

> <Gold.Chemscore.DEInternal>
2.3629

> <Gold.Chemscore.Rot>
1.5479

> <Gold.Chemscore.Internal.Correction>
   9.000000E+99

> <Gold.Chemscore.Hbonds>
donor molecule, donor type, donor heavy atom, donor atom, acceptor molecule, acceptor atom, score
      L1  H     7    36       P1  7948  0.17
      P1  H  7989  7998       L1    25  0.92

> <Gold.Chemscore.Hbond.Weighted>
-5.3863

> <Gold.Chemscore.Metal.Weighted>
-0.0000

> <Gold.Chemscore.Lipo.Weighted>
-10.6611

> <Gold.Chemscore.Internal_Hbond.Weighted>
0.0000

> <Gold.Chemscore.DEClash.Weighted>
0.0574

> <Gold.Chemscore.DEInternal.Weighted>
2.3629

> <Gold.Chemscore.Rot.Weighted>
3.9627

> <Gold.Chemscore.Internal.Correction.Weighted>
   9.000000E+99

> <Gold.Protein.RotatedTorsions>
[ 6907 6896 6895 6894 ] final  -91.90 input  -60.11 | X-H torsion
[ 7974 7965 7964 7962 ] final  126.25 input  175.53 | X-H torsion
[ 8008 7997 7996 7995 ] final   50.76 input   59.86 | X-H torsion
[ 10167 10162 10161 10158 ] final  158.24 input  -65.29 | X-H torsion
[ 10718 10713 10712 10709 ] final  -42.65 input   66.30 | X-H torsion
[ 10763 10752 10751 10750 ] final -132.79 input  -60.55 | X-H torsion
[ 11005 11000 10999 10996 ] final -103.73 input  -57.11 | X-H torsion

> <Gold.Protein.ActiveResidues>
 VAL166  LYS551  ARG553  GLY616  TRP617  ASP618  TYR619  PRO620  LYS621  CYS622 
 ASP623  PHE694  ASN695  SER759  ASP760  ASP761  ALA762  ILE779  LEU786  VAL792 
 PHE793  MET794  SER795  GLU796  ALA797  LYS798  CYS799  TRP800  GLU811  SER814 

> <Gold.Protein.RotatedAtoms>
  150.6898  134.2205  159.4394 H   0  0  0  0  0  0  0  0  0  0  0  0  # atno 6907 bound_to 6896
  152.0161  134.9846  160.0578 H   0  0  0  0  0  0  0  0  0  0  0  0  # atno 6908 bound_to 6896
  152.1442  133.4447  159.4818 H   0  0  0  0  0  0  0  0  0  0  0  0  # atno 6909 bound_to 6896
  145.0638  139.3784  143.4992 H   0  0  0  0  0  0  0  0  0  0  0  0  # atno 7974 bound_to 7965
  155.4241  140.3448  155.4274 H   0  0  0  0  0  0  0  0  0  0  0  0  # atno 8008 bound_to 7997
  156.1375  140.1532  156.9003 H   0  0  0  0  0  0  0  0  0  0  0  0  # atno 8009 bound_to 7997
  154.4944  140.0832  156.7644 H   0  0  0  0  0  0  0  0  0  0  0  0  # atno 8010 bound_to 7997
  139.4826  144.4843  151.8400 H   0  0  0  0  0  0  0  0  0  0  0  0  # atno 10167 bound_to 10162
  156.2574  130.4193  149.8581 H   0  0  0  0  0  0  0  0  0  0  0  0  # atno 10718 bound_to 10713
  154.8739  135.3786  154.4467 H   0  0  0  0  0  0  0  0  0  0  0  0  # atno 10763 bound_to 10752
  153.5147  135.7029  153.5767 H   0  0  0  0  0  0  0  0  0  0  0  0  # atno 10764 bound_to 10752
  153.4041  135.3941  155.1973 H   0  0  0  0  0  0  0  0  0  0  0  0  # atno 10765 bound_to 10752
  141.1133  133.8664  157.1522 H   0  0  0  0  0  0  0  0  0  0  0  0  # atno 11005 bound_to 11000
  146.3526  140.0350  142.8647 LP  0  0  0  0  0  0  0  0  0  0  0  0  # atno 17320 bound_to 7965
  145.1376  140.9553  143.4508 LP  0  0  0  0  0  0  0  0  0  0  0  0  # atno 17321 bound_to 7965
  140.4322  144.2101  150.5888 LP  0  0  0  0  0  0  0  0  0  0  0  0  # atno 17342 bound_to 10162
  140.4768  143.2393  151.9011 LP  0  0  0  0  0  0  0  0  0  0  0  0  # atno 17343 bound_to 10162
  156.6108  130.8586  151.3454 LP  0  0  0  0  0  0  0  0  0  0  0  0  # atno 17370 bound_to 10713
  157.7237  130.9594  150.1546 LP  0  0  0  0  0  0  0  0  0  0  0  0  # atno 17371 bound_to 10713
  140.0039  135.0016  157.0250 LP  0  0  0  0  0  0  0  0  0  0  0  0  # atno 17394 bound_to 11000
  140.4716  134.1380  155.7204 LP  0  0  0  0  0  0  0  0  0  0  0  0  # atno 17395 bound_to 11000

$$$$
