AV-unprocessed.smi:2704|AV-procd|sdf|10442|dock8
  -GOLD-   2272014483D 1   1.00000     0.00000
 Structure written by MMmdl.
 43 44  0  0  0  0  0  0  0  0  1 V2000
  152.7048  143.5513  161.4879 C   0  0  0  0  0  0  0  0  0  0  0  0
  152.6583  143.4936  159.9538 C   0  0  0  0  0  0  0  0  0  0  0  0
  151.5092  144.3206  159.3594 C   0  0  0  0  0  0  0  0  0  0  0  0
  152.6488  142.0811  159.4533 C   0  0  0  0  0  0  0  0  0  0  0  0
  153.6918  141.5746  158.8055 N   0  0  0  0  0  0  0  0  0  0  0  0
  153.2993  140.2560  158.5363 O   0  0  0  0  0  0  0  0  0  0  0  0
  152.0627  140.1217  159.0717 C   0  0  0  0  0  0  0  0  0  0  0  0
  151.3476  138.8187  158.9125 C   0  0  0  0  0  0  0  0  0  0  0  0
  152.0702  137.8088  158.0016 C   0  0  0  0  0  0  0  0  0  0  0  0
  151.2903  136.5943  157.7792 N   0  0  0  0  0  0  0  0  0  0  0  0
  151.7853  135.3926  157.4335 C   0  0  0  0  0  0  0  0  0  0  0  0
  152.9906  135.2003  157.2670 O   0  0  0  0  0  0  0  0  0  0  0  0
  150.7901  134.2270  157.2285 C   0  0  0  0  0  0  0  0  0  0  0  0
  150.1287  133.9204  158.4481 O   0  0  0  0  0  0  0  0  0  0  0  0
  149.7197  134.6357  156.1866 C   0  0  0  0  0  0  0  0  0  0  0  0
  148.7861  133.4753  155.7974 C   0  0  0  0  0  0  0  0  0  0  0  0
  149.5829  132.2564  155.3120 C   0  0  0  0  0  0  0  0  0  0  0  0
  150.6017  131.8079  156.3695 C   0  0  0  0  0  0  0  0  0  0  0  0
  151.5474  132.9588  156.7585 C   0  0  0  0  0  0  0  0  0  0  0  0
  151.5995  141.2318  159.6419 N   0  0  0  0  0  0  0  0  0  0  0  0
  153.5763  143.0210  161.8733 H   0  0  0  0  0  0  0  0  0  0  0  0
  151.8165  143.0991  161.9304 H   0  0  0  0  0  0  0  0  0  0  0  0
  152.7630  144.5814  161.8402 H   0  0  0  0  0  0  0  0  0  0  0  0
  153.5818  143.9559  159.6010 H   0  0  0  0  0  0  0  0  0  0  0  0
  151.5476  144.3181  158.2697 H   0  0  0  0  0  0  0  0  0  0  0  0
  151.5617  145.3586  159.6884 H   0  0  0  0  0  0  0  0  0  0  0  0
  150.5392  143.9263  159.6627 H   0  0  0  0  0  0  0  0  0  0  0  0
  151.2089  138.3823  159.9020 H   0  0  0  0  0  0  0  0  0  0  0  0
  150.3485  139.0174  158.5227 H   0  0  0  0  0  0  0  0  0  0  0  0
  152.3317  138.2791  157.0523 H   0  0  0  0  0  0  0  0  0  0  0  0
  153.0134  137.5177  158.4641 H   0  0  0  0  0  0  0  0  0  0  0  0
  150.2892  136.6668  157.8921 H   0  0  0  0  0  0  0  0  0  0  0  0
  149.9042  133.0024  158.4410 H   0  0  0  0  0  0  0  0  0  0  0  0
  149.1269  135.4685  156.5671 H   0  0  0  0  0  0  0  0  0  0  0  0
  150.2054  135.0000  155.2800 H   0  0  0  0  0  0  0  0  0  0  0  0
  148.1675  133.1935  156.6504 H   0  0  0  0  0  0  0  0  0  0  0  0
  148.0989  133.8021  155.0166 H   0  0  0  0  0  0  0  0  0  0  0  0
  148.9034  131.4362  155.0784 H   0  0  0  0  0  0  0  0  0  0  0  0
  150.1018  132.5031  154.3848 H   0  0  0  0  0  0  0  0  0  0  0  0
  150.0769  131.4434  157.2532 H   0  0  0  0  0  0  0  0  0  0  0  0
  151.1820  130.9663  155.9904 H   0  0  0  0  0  0  0  0  0  0  0  0
  152.1681  133.1951  155.8923 H   0  0  0  0  0  0  0  0  0  0  0  0
  152.2340  132.6198  157.5358 H   0  0  0  0  0  0  0  0  0  0  0  0
  1  2  1  0  0  0  0
  1 21  1  0  0  0  0
  1 22  1  0  0  0  0
  1 23  1  0  0  0  0
  2  3  1  0  0  0  0
  2  4  1  0  0  0  0
  2 24  1  0  0  0  0
  3 25  1  0  0  0  0
  3 26  1  0  0  0  0
  3 27  1  0  0  0  0
  4 20  1  0  0  0  0
  4  5  2  0  0  0  0
  5  6  1  0  0  0  0
  6  7  1  0  0  0  0
  7  8  1  0  0  0  0
  7 20  2  0  0  0  0
  8  9  1  0  0  0  0
  8 28  1  0  0  0  0
  8 29  1  0  0  0  0
  9 10  1  0  0  0  0
  9 30  1  0  0  0  0
  9 31  1  0  0  0  0
 10 11  1  0  0  0  0
 10 32  1  0  0  0  0
 11 12  2  0  0  0  0
 11 13  1  0  0  0  0
 13 19  1  0  0  0  0
 13 14  1  0  0  0  0
 13 15  1  0  0  0  0
 14 33  1  0  0  0  0
 15 16  1  0  0  0  0
 15 34  1  0  0  0  0
 15 35  1  0  0  0  0
 16 17  1  0  0  0  0
 16 36  1  0  0  0  0
 16 37  1  0  0  0  0
 17 18  1  0  0  0  0
 17 38  1  0  0  0  0
 17 39  1  0  0  0  0
 18 19  1  0  0  0  0
 18 40  1  0  0  0  0
 18 41  1  0  0  0  0
 19 42  1  0  0  0  0
 19 43  1  0  0  0  0
M  END
> <s_m_source_file>
AV-unprocessed.smi

> <i_m_source_file_index>
2704

> <i_lp_mmshare_version>
43012

> <i_f3d_flags>
0

> <s_epik_input>
W0NIM11bQ0hdKFtDSDNdKWMxbm9jKG4xKVtDSDJdW0NIMl1bTkhdQyg9TylDMihbT0hdKVtDSDJdW0NIMl1bQ0gyXVtDSDJdW0NIMl0y

> <s_epik_cmdline>
J2VwaWtfcHl0aG9uJywgJy1waCcsICc3LjAnLCAnLXRuJywgJzgnLCAnLW1hJywgJzIwMCcsICctbWV0YWxfYmluZGluZycsICctaW1hZScsICc8aW5maWxlLm1hZT4nLCAnLW9tYWUnLCAnPG91dGZpbGUubWFlPic=

> <r_lp_tautomer_probability>
1

> <r_epik_Ionization_Penalty>
7.72761e-08

> <r_epik_Ionization_Penalty_Charging>
0

> <r_epik_Ionization_Penalty_Neutral>
7.72761e-08

> <r_epik_State_Penalty>
-0

> <r_epik_Charging_Adjusted_Penalty>
0

> <i_epik_Tot_Q>
0

> <i_epik_Tot_abs_Q>
0

> <r_epik_Metal_State_Penalty>
-0

> <b_epik_Metal_Only>
0

> <s_lp_Force_Field>
OPLS_2005

> <r_lp_Energy>
5.6077

> <b_lp_Chiralities_Consistent>
1

> <s_lp_Variant>
AV-unprocessed.smi:2704-1

> <Gold.Version>
5.8.1

> <Gold.Id.Protein>
6NUR|6NUR_protein|mol2

> <Gold.PLP.Fitness>
41.7532

> <Gold.PLP.PLP>
-34.3661

> <Gold.PLP.part.hbond>
-3.7185

> <Gold.PLP.part.metal>
0.0000

> <Gold.PLP.part.buried>
-2.0332

> <Gold.PLP.part.nonpolar>
-27.5830

> <Gold.PLP.part.repulsive>
0.1035

> <Gold.PLP.ligand.clash>
0.0000

> <Gold.PLP.ligand.torsion>
0.3524

> <Gold.PLP.Chemscore.Hbond>
2.6622

> <Gold.PLP.Chemscore.CHOScore>
0.0000

> <Gold.PLP.Chemscore.Metal>
0.0000

> <Gold.Chemscore.Hbonds>
donor molecule, donor type, donor heavy atom, donor atom, acceptor molecule, acceptor atom, score
      P1  H  7997  8010       L1     6  0.60
      P1  H 10752 10764       L1    12  1.00

> <Gold.PLP.Chemscore.Internal.Correction>
0.1052

> <Gold.Rescore>
     Score         DG    S(hbond)    S(metal)    S(lipo)     H(rot)  DE(clash)    DE(int)     intcor
     13.04     -13.74       1.85        0.00      72.60       2.50       0.04       0.66       ----

> <Gold.Chemscore.Fitness>
13.0429

> <Gold.Chemscore.DG>
-13.7413

> <Gold.Chemscore.ZeroCoef>
-5.4800

> <Gold.Chemscore.Hbond>
1.8464

> <Gold.Chemscore.Metal>
0.0000

> <Gold.Chemscore.Lipo>
72.6034

> <Gold.Chemscore.Internal_Hbond>
0.0000

> <Gold.Chemscore.DEClash>
0.0404

> <Gold.Chemscore.DEInternal>
0.6579

> <Gold.Chemscore.Rot>
2.5001

> <Gold.Chemscore.Internal.Correction>
   9.000000E+99

> <Gold.Chemscore.Hbonds>
donor molecule, donor type, donor heavy atom, donor atom, acceptor molecule, acceptor atom, score
      P1  H  6896  6908       L1    14  0.01
      P1  H  7997  8010       L1     6  0.05
      P1  H 10752 10764       L1    12  0.65

> <Gold.Chemscore.Hbond.Weighted>
-6.1668

> <Gold.Chemscore.Metal.Weighted>
-0.0000

> <Gold.Chemscore.Lipo.Weighted>
-8.4946

> <Gold.Chemscore.Internal_Hbond.Weighted>
0.0000

> <Gold.Chemscore.DEClash.Weighted>
0.0404

> <Gold.Chemscore.DEInternal.Weighted>
0.6579

> <Gold.Chemscore.Rot.Weighted>
6.4002

> <Gold.Chemscore.Internal.Correction.Weighted>
   9.000000E+99

> <Gold.Protein.RotatedTorsions>
[ 6907 6896 6895 6894 ] final  139.64 input  -60.11 | X-H torsion
[ 7974 7965 7964 7962 ] final   32.54 input  175.53 | X-H torsion
[ 8008 7997 7996 7995 ] final   31.70 input   59.86 | X-H torsion
[ 10167 10162 10161 10158 ] final   76.53 input  -65.29 | X-H torsion
[ 10718 10713 10712 10709 ] final  170.57 input   66.30 | X-H torsion
[ 10763 10752 10751 10750 ] final   -9.20 input  -60.55 | X-H torsion
[ 11005 11000 10999 10996 ] final   -3.42 input  -57.11 | X-H torsion

> <Gold.Protein.ActiveResidues>
 VAL166  LYS551  ARG553  GLY616  TRP617  ASP618  TYR619  PRO620  LYS621  CYS622 
 ASP623  PHE694  ASN695  SER759  ASP760  ASP761  ALA762  ILE779  LEU786  VAL792 
 PHE793  MET794  SER795  GLU796  ALA797  LYS798  CYS799  TRP800  GLU811  SER814 

> <Gold.Protein.RotatedAtoms>
  152.2525  133.5227  159.5333 H   0  0  0  0  0  0  0  0  0  0  0  0  # atno 6907 bound_to 6896
  150.7098  134.0941  159.3951 H   0  0  0  0  0  0  0  0  0  0  0  0  # atno 6908 bound_to 6896
  151.8860  135.0435  160.0544 H   0  0  0  0  0  0  0  0  0  0  0  0  # atno 6909 bound_to 6896
  146.1479  139.6512  142.9118 H   0  0  0  0  0  0  0  0  0  0  0  0  # atno 7974 bound_to 7965
  155.1106  140.3238  155.4523 H   0  0  0  0  0  0  0  0  0  0  0  0  # atno 8008 bound_to 7997
  156.2691  140.2045  156.6178 H   0  0  0  0  0  0  0  0  0  0  0  0  # atno 8009 bound_to 7997
  154.6759  140.0531  157.0202 H   0  0  0  0  0  0  0  0  0  0  0  0  # atno 8010 bound_to 7997
  139.9913  144.5755  150.7816 H   0  0  0  0  0  0  0  0  0  0  0  0  # atno 10167 bound_to 10162
  157.0063  131.0191  151.2816 H   0  0  0  0  0  0  0  0  0  0  0  0  # atno 10718 bound_to 10713
  153.4514  135.7015  153.6106 H   0  0  0  0  0  0  0  0  0  0  0  0  # atno 10763 bound_to 10752
  153.4440  135.3773  155.2245 H   0  0  0  0  0  0  0  0  0  0  0  0  # atno 10764 bound_to 10752
  154.8728  135.3980  154.3927 H   0  0  0  0  0  0  0  0  0  0  0  0  # atno 10765 bound_to 10752
  140.6692  133.9252  155.8484 H   0  0  0  0  0  0  0  0  0  0  0  0  # atno 11005 bound_to 11000
  145.4893  141.0438  143.2602 LP  0  0  0  0  0  0  0  0  0  0  0  0  # atno 17320 bound_to 7965
  144.7869  139.6409  143.7130 LP  0  0  0  0  0  0  0  0  0  0  0  0  # atno 17321 bound_to 7965
  140.7454  143.2874  151.3424 LP  0  0  0  0  0  0  0  0  0  0  0  0  # atno 17342 bound_to 10162
  139.6338  144.0669  152.2499 LP  0  0  0  0  0  0  0  0  0  0  0  0  # atno 17343 bound_to 10162
  157.5354  130.8085  149.7965 LP  0  0  0  0  0  0  0  0  0  0  0  0  # atno 17370 bound_to 10713
  156.0152  130.3816  150.2133 LP  0  0  0  0  0  0  0  0  0  0  0  0  # atno 17371 bound_to 10713
  141.0405  134.0627  157.3907 LP  0  0  0  0  0  0  0  0  0  0  0  0  # atno 17394 bound_to 11000
  139.8987  135.0156  156.7162 LP  0  0  0  0  0  0  0  0  0  0  0  0  # atno 17395 bound_to 11000

$$$$
