AV-unprocessed.smi:2923|AV-procd|sdf|11202|dock8
  -GOLD-   2272016 93D 1   1.00000     0.00000
 Structure written by MMmdl.
 47 49  0  0  0  0  0  0  0  0  2 V2000
  143.9955  132.7323  148.9396 C   0  0  0  0  0  0  0  0  0  0  0  0
  144.3931  132.6534  150.3372 N   0  0  0  0  0  0  0  0  0  0  0  0
  145.4736  131.7281  150.6428 C   0  0  0  0  0  0  0  0  0  0  0  0
  144.5688  133.9138  150.9244 C   0  0  0  0  0  0  0  0  0  0  0  0
  145.8454  134.3686  151.3142 C   0  0  0  0  0  0  0  0  0  0  0  0
  145.9751  135.6414  151.9065 C   0  0  0  0  0  0  0  0  0  0  0  0
  144.8313  136.4474  152.0944 C   0  0  0  0  0  0  0  0  0  0  0  0
  145.0087  137.7146  152.7124 N   0  0  0  0  0  0  0  0  0  0  0  0
  145.9462  138.0886  153.6000 C   0  0  0  0  0  0  0  0  0  0  0  0
  146.8193  137.3567  154.0655 O   0  0  0  0  0  0  0  0  0  0  0  0
  145.8064  139.3774  153.9365 N   0  0  0  0  0  0  0  0  0  0  0  0
  146.6545  140.0842  154.9022 C   0  0  2  0  0  0  0  0  0  0  0  0
  146.2825  141.5632  155.0353 C   0  0  2  0  0  0  0  0  0  0  0  0
  145.1038  142.3997  154.6904 C   0  0  0  0  0  0  0  0  0  0  0  0
  145.8884  143.6206  154.1378 C   0  0  0  0  0  0  0  0  0  0  0  0
  147.2707  143.1925  154.0310 O   0  0  0  0  0  0  0  0  0  0  0  0
  147.1800  141.7950  153.8370 C   0  0  1  0  0  0  0  0  0  0  0  0
  148.0361  140.6128  154.3437 C   0  0  0  0  0  0  0  0  0  0  0  0
  149.1359  140.9337  155.3722 C   0  0  0  0  0  0  0  0  0  0  0  0
  148.7173  139.7791  153.2526 C   0  0  0  0  0  0  0  0  0  0  0  0
  143.5734  135.9350  151.6920 C   0  0  0  0  0  0  0  0  0  0  0  0
  143.4926  134.7095  151.1297 N   0  3  0  0  0  0  0  0  0  0  0  0
  143.1641  133.4265  148.8104 H   0  0  0  0  0  0  0  0  0  0  0  0
  143.6738  131.7533  148.5837 H   0  0  0  0  0  0  0  0  0  0  0  0
  144.8248  133.0667  148.3151 H   0  0  0  0  0  0  0  0  0  0  0  0
  145.6935  131.7265  151.7111 H   0  0  0  0  0  0  0  0  0  0  0  0
  146.3829  131.9950  150.1032 H   0  0  0  0  0  0  0  0  0  0  0  0
  145.1926  130.7142  150.3568 H   0  0  0  0  0  0  0  0  0  0  0  0
  146.7179  133.7495  151.1633 H   0  0  0  0  0  0  0  0  0  0  0  0
  146.9498  135.9950  152.2100 H   0  0  0  0  0  0  0  0  0  0  0  0
  144.3129  138.4098  152.4849 H   0  0  0  0  0  0  0  0  0  0  0  0
  145.0615  139.9080  153.5093 H   0  0  0  0  0  0  0  0  0  0  0  0
  146.7403  139.5817  155.8672 H   0  0  0  0  0  0  0  0  0  0  0  0
  146.7129  141.9413  155.9658 H   0  0  0  0  0  0  0  0  0  0  0  0
  144.4763  141.9367  153.9278 H   0  0  0  0  0  0  0  0  0  0  0  0
  144.4914  142.6505  155.5568 H   0  0  0  0  0  0  0  0  0  0  0  0
  145.5057  143.9168  153.1604 H   0  0  0  0  0  0  0  0  0  0  0  0
  145.8228  144.4826  154.8022 H   0  0  0  0  0  0  0  0  0  0  0  0
  146.7067  141.5754  152.8744 H   0  0  0  0  0  0  0  0  0  0  0  0
  149.9105  141.5653  154.9362 H   0  0  0  0  0  0  0  0  0  0  0  0
  149.6208  140.0246  155.7294 H   0  0  0  0  0  0  0  0  0  0  0  0
  148.7690  141.4535  156.2554 H   0  0  0  0  0  0  0  0  0  0  0  0
  149.6016  140.2803  152.8578 H   0  0  0  0  0  0  0  0  0  0  0  0
  148.0573  139.5958  152.4048 H   0  0  0  0  0  0  0  0  0  0  0  0
  149.0322  138.8071  153.6333 H   0  0  0  0  0  0  0  0  0  0  0  0
  142.6280  136.4432  151.8066 H   0  0  0  0  0  0  0  0  0  0  0  0
  142.5736  134.3662  150.8501 H   0  0  0  0  0  0  0  0  0  0  0  0
  1  2  1  0  0  0  0
  1 23  1  0  0  0  0
  1 24  1  0  0  0  0
  1 25  1  0  0  0  0
  2  3  1  0  0  0  0
  2  4  1  0  0  0  0
  3 26  1  0  0  0  0
  3 27  1  0  0  0  0
  3 28  1  0  0  0  0
  4 22  1  0  0  0  0
  4  5  2  0  0  0  0
  5  6  1  0  0  0  0
  5 29  1  0  0  0  0
  6  7  2  0  0  0  0
  6 30  1  0  0  0  0
  7  8  1  0  0  0  0
  7 21  1  0  0  0  0
  8  9  1  0  0  0  0
  8 31  1  0  0  0  0
  9 10  2  0  0  0  0
  9 11  1  0  0  0  0
 11 12  1  0  0  0  0
 11 32  1  0  0  0  0
 12 18  1  0  0  0  0
 12 13  1  0  0  0  0
 12 33  1  0  0  0  0
 13 17  1  0  0  0  0
 13 14  1  0  0  0  0
 13 34  1  0  0  0  0
 14 15  1  0  0  0  0
 14 35  1  0  0  0  0
 14 36  1  0  0  0  0
 15 16  1  0  0  0  0
 15 37  1  0  0  0  0
 15 38  1  0  0  0  0
 16 17  1  0  0  0  0
 17 18  1  0  0  0  0
 17 39  1  0  0  0  0
 18 19  1  0  0  0  0
 18 20  1  0  0  0  0
 19 40  1  0  0  0  0
 19 41  1  0  0  0  0
 19 42  1  0  0  0  0
 20 43  1  0  0  0  0
 20 44  1  0  0  0  0
 20 45  1  0  0  0  0
 21 22  2  0  0  0  0
 21 46  1  0  0  0  0
 22 47  1  0  0  0  0
M  CHG  1  22   1
M  END
> <s_m_source_file>
AV-unprocessed.smi

> <i_m_source_file_index>
2923

> <i_lp_mmshare_version>
43012

> <i_f3d_flags>
0

> <s_epik_input>
W0NIM11OKFtDSDNdKWMxW2NIXVtjSF1jKFtjSF1uMSlbTkhdQyg9TylbTkhdW0NASF0yQyhbQ0gzXSkoW0NIM10pW0NAQEhdKFtDQEhdMjMpT1tDSDJdW0NIMl0z

> <s_epik_cmdline>
J2VwaWtfcHl0aG9uJywgJy1waCcsICc3LjAnLCAnLXRuJywgJzgnLCAnLW1hJywgJzIwMCcsICctbWV0YWxfYmluZGluZycsICctaW1hZScsICc8aW5maWxlLm1hZT4nLCAnLW9tYWUnLCAnPG91dGZpbGUubWFlPic=

> <r_lp_tautomer_probability>
0.999994

> <r_epik_Ionization_Penalty>
0.252205

> <r_epik_Ionization_Penalty_Charging>
0.252185

> <r_epik_Ionization_Penalty_Neutral>
1.99479e-05

> <r_epik_State_Penalty>
0.243573

> <r_epik_Charging_Adjusted_Penalty>
0.495758

> <i_epik_Tot_Q>
1

> <i_epik_Tot_abs_Q>
1

> <r_epik_Metal_State_Penalty>
0.534372

> <b_epik_Metal_Only>
0

> <s_lp_Force_Field>
OPLS_2005

> <r_lp_Energy>
76.1272

> <b_lp_Chiralities_Consistent>
1

> <s_lp_Variant>
AV-unprocessed.smi:2923-1

> <Gold.Version>
5.8.1

> <Gold.Id.Protein>
6NUR|6NUR_protein|mol2

> <Gold.PLP.Fitness>
40.7270

> <Gold.PLP.PLP>
-29.0297

> <Gold.PLP.part.hbond>
-4.2731

> <Gold.PLP.part.metal>
0.0000

> <Gold.PLP.part.buried>
3.2355

> <Gold.PLP.part.nonpolar>
-28.9202

> <Gold.PLP.part.repulsive>
3.1151

> <Gold.PLP.ligand.clash>
0.0112

> <Gold.PLP.ligand.torsion>
0.7252

> <Gold.PLP.Chemscore.Hbond>
4.2340

> <Gold.PLP.Chemscore.CHOScore>
0.0000

> <Gold.PLP.Chemscore.Metal>
0.0000

> <Gold.Chemscore.Hbonds>
donor molecule, donor type, donor heavy atom, donor atom, acceptor molecule, acceptor atom, score
      L1  H     8    31       P1 10175  0.75
      L1  H    11    32       P1 10175  1.00
      L1  H    22    47       P1 10186  1.95
      P1  H  8022  8030       L1    16  0.49

> <Gold.PLP.Chemscore.Internal.Correction>
0.4570

> <Gold.Rescore>
     Score         DG    S(hbond)    S(metal)    S(lipo)     H(rot)  DE(clash)    DE(int)     intcor
     15.34     -21.76       2.59        0.00      91.49       1.20       4.61       1.80       ----

> <Gold.Chemscore.Fitness>
15.3384

> <Gold.Chemscore.DG>
-21.7560

> <Gold.Chemscore.ZeroCoef>
-5.4800

> <Gold.Chemscore.Hbond>
2.5918

> <Gold.Chemscore.Metal>
0.0000

> <Gold.Chemscore.Lipo>
91.4881

> <Gold.Chemscore.Internal_Hbond>
0.0000

> <Gold.Chemscore.DEClash>
4.6142

> <Gold.Chemscore.DEInternal>
1.8034

> <Gold.Chemscore.Rot>
1.2049

> <Gold.Chemscore.Internal.Correction>
   9.000000E+99

> <Gold.Chemscore.Hbonds>
donor molecule, donor type, donor heavy atom, donor atom, acceptor molecule, acceptor atom, score
      L1  H     8    31       P1 10175  0.71
      L1  H    11    32       P1 10175  1.00
      L1  H    22    47       P1 10186  0.22
      P1  H  8022  8030       L1    16  0.39

> <Gold.Chemscore.Hbond.Weighted>
-8.6565

> <Gold.Chemscore.Metal.Weighted>
-0.0000

> <Gold.Chemscore.Lipo.Weighted>
-10.7041

> <Gold.Chemscore.Internal_Hbond.Weighted>
0.0000

> <Gold.Chemscore.DEClash.Weighted>
4.6142

> <Gold.Chemscore.DEInternal.Weighted>
1.8034

> <Gold.Chemscore.Rot.Weighted>
3.0846

> <Gold.Chemscore.Internal.Correction.Weighted>
   9.000000E+99

> <Gold.Protein.RotatedTorsions>
[ 6907 6896 6895 6894 ] final   13.74 input  -60.11 | X-H torsion
[ 7974 7965 7964 7962 ] final   -4.42 input  175.53 | X-H torsion
[ 8008 7997 7996 7995 ] final  -81.56 input   59.86 | X-H torsion
[ 10167 10162 10161 10158 ] final   80.29 input  -65.29 | X-H torsion
[ 10718 10713 10712 10709 ] final  144.98 input   66.30 | X-H torsion
[ 10763 10752 10751 10750 ] final  154.41 input  -60.55 | X-H torsion
[ 11005 11000 10999 10996 ] final  -27.35 input  -57.11 | X-H torsion

> <Gold.Protein.ActiveResidues>
 VAL166  LYS551  ARG553  GLY616  TRP617  ASP618  TYR619  PRO620  LYS621  CYS622 
 ASP623  PHE694  ASN695  SER759  ASP760  ASP761  ALA762  ILE779  LEU786  VAL792 
 PHE793  MET794  SER795  GLU796  ALA797  LYS798  CYS799  TRP800  GLU811  SER814 

> <Gold.Protein.RotatedAtoms>
  151.7912  135.0735  160.0387 H   0  0  0  0  0  0  0  0  0  0  0  0  # atno 6907 bound_to 6896
  152.3155  133.5793  159.5718 H   0  0  0  0  0  0  0  0  0  0  0  0  # atno 6908 bound_to 6896
  150.7342  134.0005  159.3678 H   0  0  0  0  0  0  0  0  0  0  0  0  # atno 6909 bound_to 6896
  146.2372  140.1869  142.8332 H   0  0  0  0  0  0  0  0  0  0  0  0  # atno 7974 bound_to 7965
  154.5996  140.0646  156.9351 H   0  0  0  0  0  0  0  0  0  0  0  0  # atno 8008 bound_to 7997
  155.2154  140.3326  155.4304 H   0  0  0  0  0  0  0  0  0  0  0  0  # atno 8009 bound_to 7997
  156.2310  140.1841  156.7227 H   0  0  0  0  0  0  0  0  0  0  0  0  # atno 8010 bound_to 7997
  139.9513  144.6024  150.8158 H   0  0  0  0  0  0  0  0  0  0  0  0  # atno 10167 bound_to 10162
  157.3507  131.0950  151.1002 H   0  0  0  0  0  0  0  0  0  0  0  0  # atno 10718 bound_to 10713
  154.1519  135.2814  155.3133 H   0  0  0  0  0  0  0  0  0  0  0  0  # atno 10763 bound_to 10752
  154.6211  135.5467  153.7580 H   0  0  0  0  0  0  0  0  0  0  0  0  # atno 10764 bound_to 10752
  153.0218  135.6439  154.1663 H   0  0  0  0  0  0  0  0  0  0  0  0  # atno 10765 bound_to 10752
  140.9112  133.7460  156.0673 H   0  0  0  0  0  0  0  0  0  0  0  0  # atno 11005 bound_to 11000
  144.9889  140.8529  143.5351 LP  0  0  0  0  0  0  0  0  0  0  0  0  # atno 17320 bound_to 7965
  145.1872  139.2320  143.5261 LP  0  0  0  0  0  0  0  0  0  0  0  0  # atno 17321 bound_to 7965
  140.7582  143.3102  151.2864 LP  0  0  0  0  0  0  0  0  0  0  0  0  # atno 17342 bound_to 10162
  139.6626  144.0162  152.2702 LP  0  0  0  0  0  0  0  0  0  0  0  0  # atno 17343 bound_to 10162
  157.2179  130.6468  149.5799 LP  0  0  0  0  0  0  0  0  0  0  0  0  # atno 17370 bound_to 10713
  155.9721  130.4639  150.6197 LP  0  0  0  0  0  0  0  0  0  0  0  0  # atno 17371 bound_to 10713
  140.8108  134.3401  157.5412 LP  0  0  0  0  0  0  0  0  0  0  0  0  # atno 17394 bound_to 11000
  139.8758  134.9253  156.3371 LP  0  0  0  0  0  0  0  0  0  0  0  0  # atno 17395 bound_to 11000

$$$$
