AV-unprocessed.smi:2695|AV-procd|sdf|10409|dock10
  -GOLD-   2272014443D 1   1.00000     0.00000
 Structure written by MMmdl.
 42 43  0  0  0  0  0  0  0  0  1 V2000
  148.5701  140.5802  154.3458 C   0  0  0  0  0  0  0  0  0  0  0  0
  149.7511  139.6939  154.7238 C   0  0  0  0  0  0  0  0  0  0  0  0
  149.7880  138.3968  154.3680 C   0  0  0  0  0  0  0  0  0  0  0  0
  150.9008  137.5737  154.7730 C   0  0  0  0  0  0  0  0  0  0  0  0
  150.9465  136.2850  154.4134 O   0  0  0  0  0  0  0  0  0  0  0  0
  151.8846  138.1057  155.5214 C   0  0  0  0  0  0  0  0  0  0  0  0
  151.8697  139.5113  155.9337 C   0  0  0  0  0  0  0  0  0  0  0  0
  152.7681  139.9825  156.6326 O   0  0  0  0  0  0  0  0  0  0  0  0
  150.8085  140.2619  155.4938 N   0  0  0  0  0  0  0  0  0  0  0  0
  150.7761  141.7021  155.8395 C   0  0  0  0  0  0  0  0  0  0  0  0
  151.0140  141.9826  157.3310 C   0  0  0  0  0  0  0  0  0  0  0  0
  150.3055  141.4639  158.1948 O   0  0  0  0  0  0  0  0  0  0  0  0
  152.0153  142.8312  157.6099 N   0  0  0  0  0  0  0  0  0  0  0  0
  152.4321  143.2638  158.9455 C   0  0  2  0  0  0  0  0  0  0  0  0
  152.5224  142.0335  159.8864 C   0  0  0  0  0  0  0  0  0  0  0  0
  153.2294  142.2894  161.2242 C   0  0  0  0  0  0  0  0  0  0  0  0
  153.7051  140.9183  161.7228 C   0  0  0  0  0  0  0  0  0  0  0  0
  153.6385  139.9707  160.5181 C   0  0  0  0  0  0  0  0  0  0  0  0
  153.3135  140.8514  159.3107 C   0  0  0  0  0  0  0  0  0  0  0  0
  151.4577  144.3586  159.4371 C   0  0  0  0  0  0  0  0  0  0  0  0
  150.2515  143.8290  159.6456 F   0  0  0  0  0  0  0  0  0  0  0  0
  151.8909  144.8954  160.5785 F   0  0  0  0  0  0  0  0  0  0  0  0
  151.3243  145.3240  158.5285 F   0  0  0  0  0  0  0  0  0  0  0  0
  147.7338  139.9751  153.9946 H   0  0  0  0  0  0  0  0  0  0  0  0
  148.8440  141.2620  153.5405 H   0  0  0  0  0  0  0  0  0  0  0  0
  148.2041  141.1587  155.1938 H   0  0  0  0  0  0  0  0  0  0  0  0
  148.9814  137.9643  153.7936 H   0  0  0  0  0  0  0  0  0  0  0  0
  150.1787  136.1071  153.8920 H   0  0  0  0  0  0  0  0  0  0  0  0
  152.7147  137.4855  155.8280 H   0  0  0  0  0  0  0  0  0  0  0  0
  151.5258  142.2517  155.2667 H   0  0  0  0  0  0  0  0  0  0  0  0
  149.8408  142.1700  155.5356 H   0  0  0  0  0  0  0  0  0  0  0  0
  152.5415  143.2065  156.8340 H   0  0  0  0  0  0  0  0  0  0  0  0
  153.4228  143.7182  158.8868 H   0  0  0  0  0  0  0  0  0  0  0  0
  151.5130  141.6801  160.1027 H   0  0  0  0  0  0  0  0  0  0  0  0
  154.0948  142.9351  161.0692 H   0  0  0  0  0  0  0  0  0  0  0  0
  152.5794  142.7786  161.9502 H   0  0  0  0  0  0  0  0  0  0  0  0
  154.7169  140.9839  162.1238 H   0  0  0  0  0  0  0  0  0  0  0  0
  153.0613  140.5525  162.5237 H   0  0  0  0  0  0  0  0  0  0  0  0
  154.5647  139.4125  160.3776 H   0  0  0  0  0  0  0  0  0  0  0  0
  152.8385  139.2447  160.6693 H   0  0  0  0  0  0  0  0  0  0  0  0
  152.7622  140.3067  158.5433 H   0  0  0  0  0  0  0  0  0  0  0  0
  154.2408  141.2092  158.8603 H   0  0  0  0  0  0  0  0  0  0  0  0
  1  2  1  0  0  0  0
  1 24  1  0  0  0  0
  1 25  1  0  0  0  0
  1 26  1  0  0  0  0
  2  9  1  0  0  0  0
  2  3  2  0  0  0  0
  3  4  1  0  0  0  0
  3 27  1  0  0  0  0
  4  5  1  0  0  0  0
  4  6  2  0  0  0  0
  5 28  1  0  0  0  0
  6  7  1  0  0  0  0
  6 29  1  0  0  0  0
  7  8  2  0  0  0  0
  7  9  1  0  0  0  0
  9 10  1  0  0  0  0
 10 11  1  0  0  0  0
 10 30  1  0  0  0  0
 10 31  1  0  0  0  0
 11 12  2  0  0  0  0
 11 13  1  0  0  0  0
 13 14  1  0  0  0  0
 13 32  1  0  0  0  0
 14 15  1  0  0  0  0
 14 20  1  0  0  0  0
 14 33  1  0  0  0  0
 15 19  1  0  0  0  0
 15 16  1  0  0  0  0
 15 34  1  0  0  0  0
 16 17  1  0  0  0  0
 16 35  1  0  0  0  0
 16 36  1  0  0  0  0
 17 18  1  0  0  0  0
 17 37  1  0  0  0  0
 17 38  1  0  0  0  0
 18 19  1  0  0  0  0
 18 39  1  0  0  0  0
 18 40  1  0  0  0  0
 19 41  1  0  0  0  0
 19 42  1  0  0  0  0
 20 21  1  0  0  0  0
 20 22  1  0  0  0  0
 20 23  1  0  0  0  0
M  END
> <s_m_source_file>
AV-unprocessed.smi

> <i_m_source_file_index>
2695

> <i_lp_mmshare_version>
43012

> <i_f3d_flags>
0

> <s_epik_input>
W0NIM11jMVtjSF1jKFtPSF0pW2NIXWMoPU8pbjFbQ0gyXUMoPU8pW05IXVtDQEBIXShDKEYpKEYpRilbQ0hdMltDSDJdW0NIMl1bQ0gyXVtDSDJdMg==

> <s_epik_cmdline>
J2VwaWtfcHl0aG9uJywgJy1waCcsICc3LjAnLCAnLXRuJywgJzgnLCAnLW1hJywgJzIwMCcsICctbWV0YWxfYmluZGluZycsICctaW1hZScsICc8aW5maWxlLm1hZT4nLCAnLW9tYWUnLCAnPG91dGZpbGUubWFlPic=

> <r_lp_tautomer_probability>
0.999984

> <r_epik_Ionization_Penalty>
0.843628

> <r_epik_Ionization_Penalty_Charging>
1.18449e-07

> <r_epik_Ionization_Penalty_Neutral>
0.843628

> <r_epik_State_Penalty>
0.886913

> <r_epik_Charging_Adjusted_Penalty>
0.886913

> <i_epik_Tot_Q>
0

> <i_epik_Tot_abs_Q>
0

> <r_epik_Metal_State_Penalty>
0.886913

> <b_epik_Metal_Only>
0

> <s_lp_Force_Field>
OPLS_2005

> <r_lp_Energy>
35.2102

> <b_lp_Chiralities_Consistent>
1

> <s_lp_Variant>
AV-unprocessed.smi:2695-3

> <Gold.Version>
5.8.1

> <Gold.Id.Protein>
6NUR|6NUR_protein|mol2

> <Gold.PLP.Fitness>
56.1707

> <Gold.PLP.PLP>
-50.4126

> <Gold.PLP.part.hbond>
-3.4490

> <Gold.PLP.part.metal>
0.0000

> <Gold.PLP.part.buried>
0.2150

> <Gold.PLP.part.nonpolar>
-46.8360

> <Gold.PLP.part.repulsive>
0.0693

> <Gold.PLP.ligand.clash>
0.0001

> <Gold.PLP.ligand.torsion>
0.5229

> <Gold.PLP.Chemscore.Hbond>
2.1570

> <Gold.PLP.Chemscore.CHOScore>
0.0000

> <Gold.PLP.Chemscore.Metal>
0.0000

> <Gold.Chemscore.Hbonds>
donor molecule, donor type, donor heavy atom, donor atom, acceptor molecule, acceptor atom, score
      L1  H     5    28       P1  7948  0.17
      P1  H  7997  8008       L1     8  1.00
      P1  H 10752 10763       L1     5  0.84

> <Gold.PLP.Chemscore.Internal.Correction>
0.3331

> <Gold.Rescore>
     Score         DG    S(hbond)    S(metal)    S(lipo)     H(rot)  DE(clash)    DE(int)     intcor
     12.14     -18.65       1.91        0.00     109.60       2.36       0.22       6.30       ----

> <Gold.Chemscore.Fitness>
12.1382

> <Gold.Chemscore.DG>
-18.6538

> <Gold.Chemscore.ZeroCoef>
-5.4800

> <Gold.Chemscore.Hbond>
1.9137

> <Gold.Chemscore.Metal>
0.0000

> <Gold.Chemscore.Lipo>
109.6013

> <Gold.Chemscore.Internal_Hbond>
0.0000

> <Gold.Chemscore.DEClash>
0.2158

> <Gold.Chemscore.DEInternal>
6.2998

> <Gold.Chemscore.Rot>
2.3599

> <Gold.Chemscore.Internal.Correction>
   9.000000E+99

> <Gold.Chemscore.Hbonds>
donor molecule, donor type, donor heavy atom, donor atom, acceptor molecule, acceptor atom, score
      L1  H     5    28       P1  7948  0.01
      P1  H  7997  8008       L1     8  0.98
      P1  H 10752 10763       L1     5  0.61

> <Gold.Chemscore.Hbond.Weighted>
-6.3917

> <Gold.Chemscore.Metal.Weighted>
-0.0000

> <Gold.Chemscore.Lipo.Weighted>
-12.8233

> <Gold.Chemscore.Internal_Hbond.Weighted>
0.0000

> <Gold.Chemscore.DEClash.Weighted>
0.2158

> <Gold.Chemscore.DEInternal.Weighted>
6.2998

> <Gold.Chemscore.Rot.Weighted>
6.0413

> <Gold.Chemscore.Internal.Correction.Weighted>
   9.000000E+99

> <Gold.Protein.RotatedTorsions>
[ 6907 6896 6895 6894 ] final  -39.98 input  -60.11 | X-H torsion
[ 7974 7965 7964 7962 ] final  -43.65 input  175.53 | X-H torsion
[ 8008 7997 7996 7995 ] final  -45.07 input   59.86 | X-H torsion
[ 10167 10162 10161 10158 ] final  -82.62 input  -65.29 | X-H torsion
[ 10718 10713 10712 10709 ] final  -77.17 input   66.30 | X-H torsion
[ 10763 10752 10751 10750 ] final   38.80 input  -60.55 | X-H torsion
[ 11005 11000 10999 10996 ] final -170.06 input  -57.11 | X-H torsion

> <Gold.Protein.ActiveResidues>
 VAL166  LYS551  ARG553  GLY616  TRP617  ASP618  TYR619  PRO620  LYS621  CYS622 
 ASP623  PHE694  ASN695  SER759  ASP760  ASP761  ALA762  ILE779  LEU786  VAL792 
 PHE793  MET794  SER795  GLU796  ALA797  LYS798  CYS799  TRP800  GLU811  SER814 

> <Gold.Protein.RotatedAtoms>
  150.9838  134.9188  159.7859 H   0  0  0  0  0  0  0  0  0  0  0  0  # atno 6907 bound_to 6896
  152.5230  134.3374  159.9214 H   0  0  0  0  0  0  0  0  0  0  0  0  # atno 6908 bound_to 6896
  151.3380  133.3932  159.2703 H   0  0  0  0  0  0  0  0  0  0  0  0  # atno 6909 bound_to 6896
  145.9998  140.7087  142.9276 H   0  0  0  0  0  0  0  0  0  0  0  0  # atno 7974 bound_to 7965
  154.3999  140.1406  156.3788 H   0  0  0  0  0  0  0  0  0  0  0  0  # atno 8008 bound_to 7997
  155.8024  140.3475  155.5389 H   0  0  0  0  0  0  0  0  0  0  0  0  # atno 8009 bound_to 7997
  155.8470  140.0935  157.1689 H   0  0  0  0  0  0  0  0  0  0  0  0  # atno 8010 bound_to 7997
  140.4303  143.2551  151.8768 H   0  0  0  0  0  0  0  0  0  0  0  0  # atno 10167 bound_to 10162
  156.0153  130.4484  150.3304 H   0  0  0  0  0  0  0  0  0  0  0  0  # atno 10718 bound_to 10713
  152.9989  135.6239  154.2362 H   0  0  0  0  0  0  0  0  0  0  0  0  # atno 10763 bound_to 10752
  154.2103  135.2800  155.2962 H   0  0  0  0  0  0  0  0  0  0  0  0  # atno 10764 bound_to 10752
  154.5612  135.5704  153.7067 H   0  0  0  0  0  0  0  0  0  0  0  0  # atno 10765 bound_to 10752
  140.5238  134.5683  157.5055 H   0  0  0  0  0  0  0  0  0  0  0  0  # atno 11005 bound_to 11000
  144.6916  140.3214  143.7231 LP  0  0  0  0  0  0  0  0  0  0  0  0  # atno 17320 bound_to 7965
  145.7504  139.1792  143.2325 LP  0  0  0  0  0  0  0  0  0  0  0  0  # atno 17321 bound_to 7965
  139.4785  144.5342  151.8623 LP  0  0  0  0  0  0  0  0  0  0  0  0  # atno 17342 bound_to 10162
  140.4434  144.1954  150.5892 LP  0  0  0  0  0  0  0  0  0  0  0  0  # atno 17343 bound_to 10162
  157.1402  131.0294  151.2931 LP  0  0  0  0  0  0  0  0  0  0  0  0  # atno 17370 bound_to 10713
  157.4478  130.7581  149.7125 LP  0  0  0  0  0  0  0  0  0  0  0  0  # atno 17371 bound_to 10713
  139.9591  134.7483  156.0275 LP  0  0  0  0  0  0  0  0  0  0  0  0  # atno 17394 bound_to 11000
  141.1320  133.6584  156.3489 LP  0  0  0  0  0  0  0  0  0  0  0  0  # atno 17395 bound_to 11000

$$$$
