AV-unprocessed.smi:3289|AV-procd|sdf|12610|dock3
  -GOLD-   2272018543D 1   1.00000     0.00000
 Structure written by MMmdl.
 39 40  0  0  0  0  0  0  0  0  1 V2000
  152.6142  143.0106  161.9508 C   0  0  0  0  0  0  0  0  0  0  0  0
  152.4326  142.2133  160.6516 C   0  0  0  0  0  0  0  0  0  0  0  0
  153.6315  141.2957  160.3677 C   0  0  0  0  0  0  0  0  0  0  0  0
  152.1363  143.1191  159.4867 C   0  0  0  0  0  0  0  0  0  0  0  0
  152.3116  144.4380  159.5295 N   0  0  0  0  0  0  0  0  0  0  0  0
  151.8987  144.8996  158.2860 C   0  0  0  0  0  0  0  0  0  0  0  0
  151.4726  143.8377  157.5278 C   0  0  0  0  0  0  0  0  0  0  0  0
  151.6212  142.6981  158.3097 N   0  0  0  0  0  0  0  0  0  0  0  0
  151.2646  141.3494  157.8930 C   0  0  0  0  0  0  0  0  0  0  0  0
  150.8001  141.3228  156.4350 C   0  0  0  0  0  0  0  0  0  0  0  0
  151.5024  140.7903  155.5758 O   0  0  0  0  0  0  0  0  0  0  0  0
  149.6205  141.9053  156.1699 N   0  0  0  0  0  0  0  0  0  0  0  0
  149.0046  141.9915  154.8509 C   0  0  0  0  0  0  0  0  0  0  0  0
  148.0122  140.8410  154.6157 C   0  0  1  0  0  0  0  0  0  0  0  0
  147.4011  140.8327  153.2182 C   0  0  0  0  0  0  0  0  0  0  0  0
  146.9036  139.4070  153.1050 C   0  0  0  0  0  0  0  0  0  0  0  0
  147.9182  138.6175  153.9353 C   0  0  0  0  0  0  0  0  0  0  0  0
  148.6606  139.5777  154.6823 O   0  0  0  0  0  0  0  0  0  0  0  0
  151.7254  143.6020  162.1737 H   0  0  0  0  0  0  0  0  0  0  0  0
  153.4609  143.6944  161.8832 H   0  0  0  0  0  0  0  0  0  0  0  0
  152.7889  142.3470  162.7978 H   0  0  0  0  0  0  0  0  0  0  0  0
  151.5814  141.5541  160.8082 H   0  0  0  0  0  0  0  0  0  0  0  0
  153.4618  140.6953  159.4735 H   0  0  0  0  0  0  0  0  0  0  0  0
  153.8062  140.6098  161.1970 H   0  0  0  0  0  0  0  0  0  0  0  0
  154.5459  141.8699  160.2149 H   0  0  0  0  0  0  0  0  0  0  0  0
  151.9358  145.9497  158.0369 H   0  0  0  0  0  0  0  0  0  0  0  0
  151.0766  143.7997  156.5237 H   0  0  0  0  0  0  0  0  0  0  0  0
  152.1398  140.7065  157.9940 H   0  0  0  0  0  0  0  0  0  0  0  0
  150.5069  140.9458  158.5654 H   0  0  0  0  0  0  0  0  0  0  0  0
  149.1103  142.3157  156.9385 H   0  0  0  0  0  0  0  0  0  0  0  0
  148.4765  142.9438  154.7979 H   0  0  0  0  0  0  0  0  0  0  0  0
  149.7628  142.0166  154.0662 H   0  0  0  0  0  0  0  0  0  0  0  0
  147.2152  140.8658  155.3613 H   0  0  0  0  0  0  0  0  0  0  0  0
  146.6093  141.5719  153.0939 H   0  0  0  0  0  0  0  0  0  0  0  0
  148.1678  141.0205  152.4650 H   0  0  0  0  0  0  0  0  0  0  0  0
  145.9120  139.3230  153.5523 H   0  0  0  0  0  0  0  0  0  0  0  0
  146.8396  139.0618  152.0727 H   0  0  0  0  0  0  0  0  0  0  0  0
  147.4203  137.9150  154.6042 H   0  0  0  0  0  0  0  0  0  0  0  0
  148.6023  138.0538  153.3005 H   0  0  0  0  0  0  0  0  0  0  0  0
  1  2  1  0  0  0  0
  1 19  1  0  0  0  0
  1 20  1  0  0  0  0
  1 21  1  0  0  0  0
  2  3  1  0  0  0  0
  2  4  1  0  0  0  0
  2 22  1  0  0  0  0
  3 23  1  0  0  0  0
  3 24  1  0  0  0  0
  3 25  1  0  0  0  0
  4  8  1  0  0  0  0
  4  5  2  0  0  0  0
  5  6  1  0  0  0  0
  6  7  2  0  0  0  0
  6 26  1  0  0  0  0
  7  8  1  0  0  0  0
  7 27  1  0  0  0  0
  8  9  1  0  0  0  0
  9 10  1  0  0  0  0
  9 28  1  0  0  0  0
  9 29  1  0  0  0  0
 10 11  2  0  0  0  0
 10 12  1  0  0  0  0
 12 13  1  0  0  0  0
 12 30  1  0  0  0  0
 13 14  1  0  0  0  0
 13 31  1  0  0  0  0
 13 32  1  0  0  0  0
 14 18  1  0  0  0  0
 14 15  1  0  0  0  0
 14 33  1  0  0  0  0
 15 16  1  0  0  0  0
 15 34  1  0  0  0  0
 15 35  1  0  0  0  0
 16 17  1  0  0  0  0
 16 36  1  0  0  0  0
 16 37  1  0  0  0  0
 17 18  1  0  0  0  0
 17 38  1  0  0  0  0
 17 39  1  0  0  0  0
M  END
> <s_m_source_file>
AV-unprocessed.smi

> <i_m_source_file_index>
3289

> <i_lp_mmshare_version>
43012

> <i_f3d_flags>
0

> <s_epik_input>
W0NIM11bQ0hdKFtDSDNdKWMxbltjSF1bY0hdbjFbQ0gyXUMoPU8pW05IXVtDSDJdW0NAQEhdMltDSDJdW0NIMl1bQ0gyXU8y

> <s_epik_cmdline>
J2VwaWtfcHl0aG9uJywgJy1waCcsICc3LjAnLCAnLXRuJywgJzgnLCAnLW1hJywgJzIwMCcsICctbWV0YWxfYmluZGluZycsICctaW1hZScsICc8aW5maWxlLm1hZT4nLCAnLW9tYWUnLCAnPG91dGZpbGUubWFlPic=

> <r_lp_tautomer_probability>
1

> <r_epik_Ionization_Penalty>
0.587725

> <r_epik_Ionization_Penalty_Charging>
0.587725

> <r_epik_Ionization_Penalty_Neutral>
1.43432e-07

> <r_epik_State_Penalty>
0.601029

> <r_epik_Charging_Adjusted_Penalty>
1.18875

> <i_epik_Tot_Q>
0

> <i_epik_Tot_abs_Q>
0

> <r_epik_Metal_State_Penalty>
0.297663

> <b_epik_Metal_Only>
0

> <s_lp_Force_Field>
OPLS_2005

> <r_lp_Energy>
18.4157

> <b_lp_Chiralities_Consistent>
1

> <s_lp_Variant>
AV-unprocessed.smi:3289-4

> <Gold.Version>
5.8.1

> <Gold.Id.Protein>
6NUR|6NUR_protein|mol2

> <Gold.PLP.Fitness>
44.7893

> <Gold.PLP.PLP>
-40.8264

> <Gold.PLP.part.hbond>
-2.0000

> <Gold.PLP.part.metal>
0.0000

> <Gold.PLP.part.buried>
-1.4942

> <Gold.PLP.part.nonpolar>
-37.6149

> <Gold.PLP.part.repulsive>
0.2044

> <Gold.PLP.ligand.clash>
0.0000

> <Gold.PLP.ligand.torsion>
0.5593

> <Gold.PLP.Chemscore.Hbond>
0.6880

> <Gold.PLP.Chemscore.CHOScore>
0.9814

> <Gold.PLP.Chemscore.Metal>
0.0000

> <Gold.Chemscore.Hbonds>
donor molecule, donor type, donor heavy atom, donor atom, acceptor molecule, acceptor atom, score
      P1  H  7989  7998       L1    11  0.63
      L1  C     7    27       P1  8028  0.96

> <Gold.PLP.Chemscore.Internal.Correction>
0.0732

> <Gold.Rescore>
     Score         DG    S(hbond)    S(metal)    S(lipo)     H(rot)  DE(clash)    DE(int)     intcor
     13.27     -14.99       0.82        0.00      95.32       1.72       0.53       1.19       ----

> <Gold.Chemscore.Fitness>
13.2716

> <Gold.Chemscore.DG>
-14.9897

> <Gold.Chemscore.ZeroCoef>
-5.4800

> <Gold.Chemscore.Hbond>
0.8246

> <Gold.Chemscore.Metal>
0.0000

> <Gold.Chemscore.Lipo>
95.3175

> <Gold.Chemscore.Internal_Hbond>
0.0000

> <Gold.Chemscore.DEClash>
0.5258

> <Gold.Chemscore.DEInternal>
1.1923

> <Gold.Chemscore.Rot>
1.7175

> <Gold.Chemscore.Internal.Correction>
   9.000000E+99

> <Gold.Chemscore.Hbonds>
donor molecule, donor type, donor heavy atom, donor atom, acceptor molecule, acceptor atom, score
      P1  H  7989  7998       L1    11  0.59

> <Gold.Chemscore.Hbond.Weighted>
-2.7542

> <Gold.Chemscore.Metal.Weighted>
-0.0000

> <Gold.Chemscore.Lipo.Weighted>
-11.1522

> <Gold.Chemscore.Internal_Hbond.Weighted>
0.0000

> <Gold.Chemscore.DEClash.Weighted>
0.5258

> <Gold.Chemscore.DEInternal.Weighted>
1.1923

> <Gold.Chemscore.Rot.Weighted>
4.3967

> <Gold.Chemscore.Internal.Correction.Weighted>
   9.000000E+99

> <Gold.Protein.RotatedTorsions>
[ 6907 6896 6895 6894 ] final  112.13 input  -60.11 | X-H torsion
[ 7974 7965 7964 7962 ] final  -79.73 input  175.53 | X-H torsion
[ 8008 7997 7996 7995 ] final -144.74 input   59.86 | X-H torsion
[ 10167 10162 10161 10158 ] final   43.39 input  -65.29 | X-H torsion
[ 10718 10713 10712 10709 ] final  -68.61 input   66.30 | X-H torsion
[ 10763 10752 10751 10750 ] final  135.44 input  -60.55 | X-H torsion
[ 11005 11000 10999 10996 ] final   -3.09 input  -57.11 | X-H torsion

> <Gold.Protein.ActiveResidues>
 VAL166  LYS551  ARG553  GLY616  TRP617  ASP618  TYR619  PRO620  LYS621  CYS622 
 ASP623  PHE694  ASN695  SER759  ASP760  ASP761  ALA762  ILE779  LEU786  VAL792 
 PHE793  MET794  SER795  GLU796  ALA797  LYS798  CYS799  TRP800  GLU811  SER814 

> <Gold.Protein.RotatedAtoms>
  152.4933  133.8560  159.7225 H   0  0  0  0  0  0  0  0  0  0  0  0  # atno 6907 bound_to 6896
  150.9084  133.7019  159.2867 H   0  0  0  0  0  0  0  0  0  0  0  0  # atno 6908 bound_to 6896
  151.4437  135.1027  159.9730 H   0  0  0  0  0  0  0  0  0  0  0  0  # atno 6909 bound_to 6896
  145.5693  140.9469  143.1404 H   0  0  0  0  0  0  0  0  0  0  0  0  # atno 7974 bound_to 7965
  155.5318  140.0600  157.2887 H   0  0  0  0  0  0  0  0  0  0  0  0  # atno 8008 bound_to 7997
  154.4482  140.1934  156.0546 H   0  0  0  0  0  0  0  0  0  0  0  0  # atno 8009 bound_to 7997
  156.0647  140.3268  155.7507 H   0  0  0  0  0  0  0  0  0  0  0  0  # atno 8010 bound_to 7997
  140.3449  144.2424  150.6151 H   0  0  0  0  0  0  0  0  0  0  0  0  # atno 10167 bound_to 10162
  156.0497  130.4298  150.2025 H   0  0  0  0  0  0  0  0  0  0  0  0  # atno 10718 bound_to 10713
  153.8400  135.3092  155.3425 H   0  0  0  0  0  0  0  0  0  0  0  0  # atno 10763 bound_to 10752
  154.7936  135.4768  154.0113 H   0  0  0  0  0  0  0  0  0  0  0  0  # atno 10764 bound_to 10752
  153.1581  135.6856  153.8874 H   0  0  0  0  0  0  0  0  0  0  0  0  # atno 10765 bound_to 10752
  140.6656  133.9282  155.8462 H   0  0  0  0  0  0  0  0  0  0  0  0  # atno 11005 bound_to 11000
  144.7445  139.7357  143.7297 LP  0  0  0  0  0  0  0  0  0  0  0  0  # atno 17320 bound_to 7965
  146.1796  139.4982  142.9875 LP  0  0  0  0  0  0  0  0  0  0  0  0  # atno 17321 bound_to 7965
  140.5274  143.2251  151.8293 LP  0  0  0  0  0  0  0  0  0  0  0  0  # atno 17342 bound_to 10162
  139.4835  144.4762  151.9364 LP  0  0  0  0  0  0  0  0  0  0  0  0  # atno 17343 bound_to 10162
  157.0110  130.9951  151.3366 LP  0  0  0  0  0  0  0  0  0  0  0  0  # atno 17370 bound_to 10713
  157.5410  130.8120  149.8028 LP  0  0  0  0  0  0  0  0  0  0  0  0  # atno 17371 bound_to 10713
  141.0432  134.0591  157.3876 LP  0  0  0  0  0  0  0  0  0  0  0  0  # atno 17394 bound_to 11000
  139.8998  135.0160  156.7214 LP  0  0  0  0  0  0  0  0  0  0  0  0  # atno 17395 bound_to 11000

$$$$
