AV-unprocessed.smi:193|AV-procd|sdf|1504|dock2
  -GOLD-   2262019333D 1   1.00000     0.00000
 Structure written by MMmdl.
 62 66  0  0  0  0  0  0  0  0  2 V2000
  149.6205  133.6521  155.2775 C   0  0  0  0  0  0  0  0  0  0  0  0
  149.3038  135.1057  154.8900 C   0  0  2  0  0  0  0  0  0  0  0  0
  149.8804  136.0593  155.9576 C   0  0  0  0  0  0  0  0  0  0  0  0
  150.1230  137.4221  155.4792 N   0  0  0  0  0  0  0  0  0  0  0  0
  150.9888  138.2027  156.1772 C   0  0  0  0  0  0  0  0  0  0  0  0
  152.0045  137.6128  156.8620 N   0  0  0  0  0  0  0  0  0  0  0  0
  152.8605  138.3528  157.5728 C   0  0  0  0  0  0  0  0  0  0  0  0
  152.8846  139.6766  157.7329 N   0  0  0  0  0  0  0  0  0  0  0  0
  151.8755  140.2777  157.0406 C   0  0  0  0  0  0  0  0  0  0  0  0
  150.8968  139.6237  156.2394 C   0  0  0  0  0  0  0  0  0  0  0  0
  150.0476  140.5667  155.6702 N   0  0  0  0  0  0  0  0  0  0  0  0
  150.4895  141.7087  156.1208 C   0  0  0  0  0  0  0  0  0  0  0  0
  151.5744  141.6265  156.9640 N   0  0  0  0  0  0  0  0  0  0  0  0
  152.2545  142.7337  157.6186 C   0  0  0  0  0  0  0  0  0  0  0  0
  151.5184  143.2698  158.8724 C   0  0  0  0  0  0  0  0  0  0  0  0
  151.5185  142.2426  159.8485 O   0  0  0  0  0  0  0  0  0  0  0  0
  152.2635  144.4889  159.4519 C   0  0  0  0  0  0  0  0  0  0  0  0
  151.4784  145.1629  160.5912 C   0  0  0  0  0  0  0  0  0  0  0  0
  150.1768  145.5179  160.1411 O   0  0  0  0  0  0  0  0  0  0  0  0
  149.3979  144.3879  159.7688 C   0  0  0  0  0  0  0  0  0  0  0  0
  150.0527  143.6611  158.5807 C   0  0  0  0  0  0  0  0  0  0  0  0
  149.2478  138.0796  154.5094 C   0  0  0  0  0  0  0  0  0  0  0  0
  147.7627  137.7509  154.7064 C   0  0  0  0  0  0  0  0  0  0  0  0
  147.3898  136.5064  153.9931 N   0  3  2  0  0  0  0  0  0  0  0  0
  145.9542  136.4990  153.6252 C   0  0  2  0  0  0  0  0  0  0  0  0
  145.6865  136.0927  152.1933 C   0  0  0  0  0  0  0  0  0  0  0  0
  145.5487  137.5436  152.5999 C   0  0  2  0  0  0  0  0  0  0  0  0
  146.5029  138.5853  152.0436 C   0  0  0  0  0  0  0  0  0  0  0  0
  147.7770  135.2741  154.7228 C   0  0  0  0  0  0  0  0  0  0  0  0
  149.1668  133.3879  156.2335 H   0  0  0  0  0  0  0  0  0  0  0  0
  150.6957  133.4924  155.3641 H   0  0  0  0  0  0  0  0  0  0  0  0
  149.2506  132.9521  154.5276 H   0  0  0  0  0  0  0  0  0  0  0  0
  149.7965  135.2897  153.9338 H   0  0  0  0  0  0  0  0  0  0  0  0
  149.2342  136.0852  156.8362 H   0  0  0  0  0  0  0  0  0  0  0  0
  150.8381  135.6593  156.2952 H   0  0  0  0  0  0  0  0  0  0  0  0
  153.6357  137.8064  158.0895 H   0  0  0  0  0  0  0  0  0  0  0  0
  150.0262  142.6487  155.8575 H   0  0  0  0  0  0  0  0  0  0  0  0
  153.2642  142.4116  157.8789 H   0  0  0  0  0  0  0  0  0  0  0  0
  152.3721  143.5331  156.8859 H   0  0  0  0  0  0  0  0  0  0  0  0
  150.6259  141.9740  160.0034 H   0  0  0  0  0  0  0  0  0  0  0  0
  153.2556  144.2001  159.8016 H   0  0  0  0  0  0  0  0  0  0  0  0
  152.4216  145.2242  158.6618 H   0  0  0  0  0  0  0  0  0  0  0  0
  151.4094  144.5106  161.4632 H   0  0  0  0  0  0  0  0  0  0  0  0
  151.9952  146.0665  160.9148 H   0  0  0  0  0  0  0  0  0  0  0  0
  149.2765  143.7179  160.6211 H   0  0  0  0  0  0  0  0  0  0  0  0
  148.3997  144.7270  159.4916 H   0  0  0  0  0  0  0  0  0  0  0  0
  150.0227  144.3200  157.7121 H   0  0  0  0  0  0  0  0  0  0  0  0
  149.4592  142.7837  158.3214 H   0  0  0  0  0  0  0  0  0  0  0  0
  149.3461  139.1610  154.6090 H   0  0  0  0  0  0  0  0  0  0  0  0
  149.5713  137.8382  153.4961 H   0  0  0  0  0  0  0  0  0  0  0  0
  147.4830  137.7127  155.7606 H   0  0  0  0  0  0  0  0  0  0  0  0
  147.1921  138.5746  154.2758 H   0  0  0  0  0  0  0  0  0  0  0  0
  145.2638  136.2004  154.4125 H   0  0  0  0  0  0  0  0  0  0  0  0
  146.5347  135.8215  151.5671 H   0  0  0  0  0  0  0  0  0  0  0  0
  144.7683  135.5450  151.9902 H   0  0  0  0  0  0  0  0  0  0  0  0
  144.5296  137.9123  152.6975 H   0  0  0  0  0  0  0  0  0  0  0  0
  147.4919  138.1644  151.8611 H   0  0  0  0  0  0  0  0  0  0  0  0
  146.5997  139.4175  152.7410 H   0  0  0  0  0  0  0  0  0  0  0  0
  146.1192  138.9716  151.0992 H   0  0  0  0  0  0  0  0  0  0  0  0
  147.3969  134.4226  154.1569 H   0  0  0  0  0  0  0  0  0  0  0  0
  147.2754  135.2405  155.6914 H   0  0  0  0  0  0  0  0  0  0  0  0
  147.8991  136.5067  153.1209 H   0  0  0  0  0  0  0  0  0  0  0  0
  1  2  1  0  0  0  0
  1 30  1  0  0  0  0
  1 31  1  0  0  0  0
  1 32  1  0  0  0  0
  2 29  1  0  0  0  0
  2  3  1  0  0  0  0
  2 33  1  0  0  0  0
  3  4  1  0  0  0  0
  3 34  1  0  0  0  0
  3 35  1  0  0  0  0
  4  5  1  0  0  0  0
  4 22  1  0  0  0  0
  5 10  1  0  0  0  0
  5  6  2  0  0  0  0
  6  7  1  0  0  0  0
  7  8  2  0  0  0  0
  7 36  1  0  0  0  0
  8  9  1  0  0  0  0
  9 13  1  0  0  0  0
  9 10  2  0  0  0  0
 10 11  1  0  0  0  0
 11 12  2  0  0  0  0
 12 13  1  0  0  0  0
 12 37  1  0  0  0  0
 13 14  1  0  0  0  0
 14 15  1  0  0  0  0
 14 38  1  0  0  0  0
 14 39  1  0  0  0  0
 15 21  1  0  0  0  0
 15 16  1  0  0  0  0
 15 17  1  0  0  0  0
 16 40  1  0  0  0  0
 17 18  1  0  0  0  0
 17 41  1  0  0  0  0
 17 42  1  0  0  0  0
 18 19  1  0  0  0  0
 18 43  1  0  0  0  0
 18 44  1  0  0  0  0
 19 20  1  0  0  0  0
 20 21  1  0  0  0  0
 20 45  1  0  0  0  0
 20 46  1  0  0  0  0
 21 47  1  0  0  0  0
 21 48  1  0  0  0  0
 22 23  1  0  0  0  0
 22 49  1  0  0  0  0
 22 50  1  0  0  0  0
 23 24  1  0  0  0  0
 23 51  1  0  0  0  0
 23 52  1  0  0  0  0
 24 25  1  0  0  0  0
 24 29  1  0  0  0  0
 24 62  1  0  0  0  0
 25 27  1  0  0  0  0
 25 26  1  0  0  0  0
 25 53  1  0  0  0  0
 26 27  1  0  0  0  0
 26 54  1  0  0  0  0
 26 55  1  0  0  0  0
 27 28  1  0  0  0  0
 27 56  1  0  0  0  0
 28 57  1  0  0  0  0
 28 58  1  0  0  0  0
 28 59  1  0  0  0  0
 29 60  1  0  0  0  0
 29 61  1  0  0  0  0
M  CHG  1  24   1
M  END
> <s_m_source_file>
AV-unprocessed.smi

> <i_m_source_file_index>
193

> <i_lp_mmshare_version>
43012

> <i_f3d_flags>
0

> <s_epik_input>
W0NIM11bQ0BASF0xW0NIMl1bQ0BIXTFOKFtDSDJdMilbQ0gyXVtDSDJdTihbQ0gyXVtDQEhdMltDSDNdKWMobltjSF1uMyljKGMzNCluW2NIXW40W0NIMl1DNShbT0hdKVtDSDJdW0NIMl1PW0NIMl1bQ0gyXTU=

> <s_epik_cmdline>
J2VwaWtfcHl0aG9uJywgJy1waCcsICc3LjAnLCAnLXRuJywgJzgnLCAnLW1hJywgJzIwMCcsICctbWV0YWxfYmluZGluZycsICctaW1hZScsICc8aW5maWxlLm1hZT4nLCAnLW9tYWUnLCAnPG91dGZpbGUubWFlPic=

> <r_lp_tautomer_probability>
1

> <r_epik_Ionization_Penalty>
0.0540825

> <r_epik_Ionization_Penalty_Charging>
0.0538476

> <r_epik_Ionization_Penalty_Neutral>
0.000234891

> <r_epik_State_Penalty>
0.0200719

> <r_epik_Charging_Adjusted_Penalty>
0.0739194

> <i_epik_Tot_Q>
1

> <i_epik_Tot_abs_Q>
1

> <r_epik_Metal_State_Penalty>
0.0199414

> <b_epik_Metal_Only>
0

> <s_lp_Force_Field>
OPLS_2005

> <r_lp_Energy>
56.2911

> <b_lp_Chiralities_Consistent>
1

> <s_lp_Variant>
AV-unprocessed.smi:193-9

> <Gold.Version>
5.8.1

> <Gold.Id.Protein>
6NUR|6NUR_protein|mol2

> <Gold.PLP.Fitness>
48.9790

> <Gold.PLP.PLP>
-37.9915

> <Gold.PLP.part.hbond>
-3.7474

> <Gold.PLP.part.metal>
0.0000

> <Gold.PLP.part.buried>
-4.8621

> <Gold.PLP.part.nonpolar>
-30.6285

> <Gold.PLP.part.repulsive>
0.2996

> <Gold.PLP.ligand.clash>
0.0000

> <Gold.PLP.ligand.torsion>
1.1650

> <Gold.PLP.Chemscore.Hbond>
3.0000

> <Gold.PLP.Chemscore.CHOScore>
1.0000

> <Gold.PLP.Chemscore.Metal>
0.0000

> <Gold.Chemscore.Hbonds>
donor molecule, donor type, donor heavy atom, donor atom, acceptor molecule, acceptor atom, score
      L1  H    24    62       P1  7948  2.00
      P1  H  7997  8008       L1     8  1.00
      L1  C    12    37       P1  8028  1.00

> <Gold.PLP.Chemscore.Internal.Correction>
1.3175

> <Gold.Rescore>
     Score         DG    S(hbond)    S(metal)    S(lipo)     H(rot)  DE(clash)    DE(int)     intcor
     13.09     -17.79       1.44        0.00     106.22       1.93       2.20       2.51       ----

> <Gold.Chemscore.Fitness>
13.0857

> <Gold.Chemscore.DG>
-17.7933

> <Gold.Chemscore.ZeroCoef>
-5.4800

> <Gold.Chemscore.Hbond>
1.4443

> <Gold.Chemscore.Metal>
0.0000

> <Gold.Chemscore.Lipo>
106.2202

> <Gold.Chemscore.Internal_Hbond>
0.0000

> <Gold.Chemscore.DEClash>
2.2003

> <Gold.Chemscore.DEInternal>
2.5073

> <Gold.Chemscore.Rot>
1.9290

> <Gold.Chemscore.Internal.Correction>
   9.000000E+99

> <Gold.Chemscore.Hbonds>
donor molecule, donor type, donor heavy atom, donor atom, acceptor molecule, acceptor atom, score
      L1  H    24    62       P1  7948  1.00
      P1  H  7997  8008       L1     8  0.18

> <Gold.Chemscore.Hbond.Weighted>
-4.8238

> <Gold.Chemscore.Metal.Weighted>
-0.0000

> <Gold.Chemscore.Lipo.Weighted>
-12.4278

> <Gold.Chemscore.Internal_Hbond.Weighted>
0.0000

> <Gold.Chemscore.DEClash.Weighted>
2.2003

> <Gold.Chemscore.DEInternal.Weighted>
2.5073

> <Gold.Chemscore.Rot.Weighted>
4.9383

> <Gold.Chemscore.Internal.Correction.Weighted>
   9.000000E+99

> <Gold.Protein.RotatedTorsions>
[ 6907 6896 6895 6894 ] final -144.39 input  -60.11 | X-H torsion
[ 7974 7965 7964 7962 ] final  -48.54 input  175.53 | X-H torsion
[ 8008 7997 7996 7995 ] final  -77.41 input   59.86 | X-H torsion
[ 10167 10162 10161 10158 ] final  -92.13 input  -65.29 | X-H torsion
[ 10718 10713 10712 10709 ] final  -61.65 input   66.30 | X-H torsion
[ 10763 10752 10751 10750 ] final -163.08 input  -60.55 | X-H torsion
[ 11005 11000 10999 10996 ] final  109.32 input  -57.11 | X-H torsion

> <Gold.Protein.ActiveResidues>
 VAL166  LYS551  ARG553  GLY616  TRP617  ASP618  TYR619  PRO620  LYS621  CYS622 
 ASP623  PHE694  ASN695  SER759  ASP760  ASP761  ALA762  ILE779  LEU786  VAL792 
 PHE793  MET794  SER795  GLU796  ALA797  LYS798  CYS799  TRP800  GLU811  SER814 

> <Gold.Protein.RotatedAtoms>
  151.1134  133.5156  159.2604 H   0  0  0  0  0  0  0  0  0  0  0  0  # atno 6907 bound_to 6896
  151.1941  135.0415  159.8855 H   0  0  0  0  0  0  0  0  0  0  0  0  # atno 6908 bound_to 6896
  152.5451  134.0971  159.8355 H   0  0  0  0  0  0  0  0  0  0  0  0  # atno 6909 bound_to 6896
  145.9501  140.7581  142.9509 H   0  0  0  0  0  0  0  0  0  0  0  0  # atno 7974 bound_to 7965
  154.5594  140.0711  156.8795 H   0  0  0  0  0  0  0  0  0  0  0  0  # atno 8008 bound_to 7997
  155.2840  140.3373  155.4238 H   0  0  0  0  0  0  0  0  0  0  0  0  # atno 8009 bound_to 7997
  156.2029  140.1729  156.7846 H   0  0  0  0  0  0  0  0  0  0  0  0  # atno 8010 bound_to 7997
  140.3379  143.2958  151.9869 H   0  0  0  0  0  0  0  0  0  0  0  0  # atno 10167 bound_to 10162
  156.0907  130.4200  150.1024 H   0  0  0  0  0  0  0  0  0  0  0  0  # atno 10718 bound_to 10713
  154.7155  135.3015  154.9130 H   0  0  0  0  0  0  0  0  0  0  0  0  # atno 10763 bound_to 10752
  154.0018  135.6706  153.4764 H   0  0  0  0  0  0  0  0  0  0  0  0  # atno 10764 bound_to 10752
  153.0790  135.5019  154.8379 H   0  0  0  0  0  0  0  0  0  0  0  0  # atno 10765 bound_to 10752
  139.8860  134.9455  156.6108 H   0  0  0  0  0  0  0  0  0  0  0  0  # atno 11005 bound_to 11000
  144.6794  140.2420  143.7342 LP  0  0  0  0  0  0  0  0  0  0  0  0  # atno 17320 bound_to 7965
  145.8183  139.2032  143.1953 LP  0  0  0  0  0  0  0  0  0  0  0  0  # atno 17321 bound_to 7965
  139.4845  144.6181  151.7307 LP  0  0  0  0  0  0  0  0  0  0  0  0  # atno 17342 bound_to 10162
  140.5337  144.0690  150.6062 LP  0  0  0  0  0  0  0  0  0  0  0  0  # atno 17343 bound_to 10162
  156.9035  130.9628  151.3573 LP  0  0  0  0  0  0  0  0  0  0  0  0  # atno 17370 bound_to 10713
  157.6056  130.8544  149.8869 LP  0  0  0  0  0  0  0  0  0  0  0  0  # atno 17371 bound_to 10713
  140.7813  133.8658  155.8570 LP  0  0  0  0  0  0  0  0  0  0  0  0  # atno 17394 bound_to 11000
  140.9758  134.1471  157.4537 LP  0  0  0  0  0  0  0  0  0  0  0  0  # atno 17395 bound_to 11000

$$$$
