#       Name:                AV-unprocessed.smi:1966
#       Creating user name   scv26
#       Creation time:       Fri Mar 27 10:11:40 2020


#       File generated by GOLD software.
#

@<TRIPOS>MOLECULE
AV-unprocessed.smi:1966
    61    62     1
SMALL
NO_CHARGES


@<TRIPOS>ATOM
      1 ****        -5.2860  -4.2335  -1.7900 C.3            1 S1                 0.0000
      2 ****        -4.7792  -2.8776  -1.3115 C.2            1 S1                 0.0000
      3 ****        -4.6037  -1.9631  -2.1162 O.2            1 S1                 0.0000
      4 ****        -4.5482  -2.7624   0.0057 N.am           1 S1                 0.0000
      5 ****        -4.0468  -1.5621   0.6792 C.3            1 S1                 0.0000
      6 ****        -2.5098  -1.5350   0.5653 C.2            1 S1                 0.0000
      7 ****        -1.8554  -2.5450   0.8289 O.2            1 S1                 0.0000
      8 ****        -1.9770  -0.3642   0.1700 N.am           1 S1                 0.0000
      9 ****        -0.6068  -0.0306  -0.0011 C.ar           1 S1                 0.0000
     10 ****         0.4575  -0.6702   0.6750 C.ar           1 S1                 0.0000
     11 ****         1.7757  -0.2369   0.4356 C.ar           1 S1                 0.0000
     12 ****         2.0021   0.8300  -0.4659 C.ar           1 S1                 0.0000
     13 ****         3.3168   1.2726  -0.7281 N.3            1 S1                 0.0000
     14 ****         4.1276   1.6007   0.4412 C.3            1 S1                 0.0000
     15 ****         5.6107   1.7311   0.0450 C.3            1 S1                 0.0000
     16 ****         6.4826   2.1924   1.2177 C.3            1 S1                 0.0000
     17 ****         5.7339   2.6854  -1.0063 O.3            1 S1                 0.0000
     18 ****         5.0253   2.2969  -2.1801 C.3            1 S1                 0.0000
     19 ****         5.2980   3.3344  -3.2741 C.3            1 S1                 0.0000
     20 ****         3.5251   2.1844  -1.8506 C.3            1 S1                 0.0000
     21 ****         0.9772   1.4480  -1.1028 N.ar           1 S1                 0.0000
     22 ****        -0.2848   1.0318  -0.8685 C.ar           1 S1                 0.0000
     23 ****        -4.4682  -1.6140   2.1778 C.3            1 S1                 0.0000
     24 ****        -5.9978  -1.7145   2.3401 C.3            1 S1                 0.0000
     25 ****        -3.9538  -0.4093   2.9938 C.3            1 S1                 0.0000
     26 ****        -4.5583  -5.0132  -1.5627 H              1 S1                 0.0000
     27 ****        -5.4547  -4.2269  -2.8674 H              1 S1                 0.0000
     28 ****        -6.2263  -4.4836  -1.2980 H              1 S1                 0.0000
     29 ****        -4.7139  -3.5710   0.5872 H              1 S1                 0.0000
     30 ****        -4.4737  -0.6715   0.2126 H              1 S1                 0.0000
     31 ****        -2.6356   0.3513  -0.1019 H              1 S1                 0.0000
     32 ****         0.2902  -1.4727   1.3765 H              1 S1                 0.0000
     33 ****         2.5937  -0.7354   0.9338 H              1 S1                 0.0000
     34 ****         3.7674   2.5403   0.8624 H              1 S1                 0.0000
     35 ****         4.0323   0.8474   1.2219 H              1 S1                 0.0000
     36 ****         5.9822   0.7655  -0.3031 H              1 S1                 0.0000
     37 ****         6.4307   1.4861   2.0468 H              1 S1                 0.0000
     38 ****         6.1640   3.1673   1.5876 H              1 S1                 0.0000
     39 ****         7.5273   2.2752   0.9170 H              1 S1                 0.0000
     40 ****         5.3998   1.3296  -2.5202 H              1 S1                 0.0000
     41 ****         4.7851   3.0724  -4.1998 H              1 S1                 0.0000
     42 ****         6.3642   3.3993  -3.4920 H              1 S1                 0.0000
     43 ****         4.9587   4.3255  -2.9716 H              1 S1                 0.0000
     44 ****         2.9884   1.8259  -2.7301 H              1 S1                 0.0000
     45 ****         3.1193   3.1649  -1.5968 H              1 S1                 0.0000
     46 ****        -1.0624   1.5623  -1.3986 H              1 S1                 0.0000
     47 ****        -4.0412  -2.5127   2.6267 H              1 S1                 0.0000
     48 ****        -6.4994  -0.8623   1.8803 H              1 S1                 0.0000
     49 ****        -6.2809  -1.7361   3.3929 H              1 S1                 0.0000
     50 ****        -6.3989  -2.6210   1.8866 H              1 S1                 0.0000
     51 ****        -4.2999   0.5325   2.5671 H              1 S1                 0.0000
     52 ****        -2.8652  -0.3757   3.0380 H              1 S1                 0.0000
     53 ****        -4.3071  -0.4547   4.0242 H              1 S1                 0.0000
     54 ****        -4.7936  -2.1082  -3.0872 LP             1 S1                 0.0000
     55 ****        -4.2712  -1.0749  -1.7990 LP             1 S1                 0.0000
     56 ****        -2.3214  -3.3817   1.1166 LP             1 S1                 0.0000
     57 ****        -0.8583  -2.5280   0.7552 LP             1 S1                 0.0000
     58 ****         3.6913   0.4140  -1.0782 LP             1 S1                 0.0000
     59 ****         6.7020   2.7878  -1.2350 LP             1 S1                 0.0000
     60 ****         5.3721   3.5618  -0.6883 LP             1 S1                 0.0000
     61 ****         1.1538   2.2010  -1.7367 LP             1 S1                 0.0000
@<TRIPOS>BOND
    1    1    2 1     
    2    1   26 1     
    3    1   27 1     
    4    1   28 1     
    5    2    3 2     
    6    2    4 am    
    7    4    5 1     
    8    4   29 1     
    9    5    6 1     
   10    5   23 1     
   11    5   30 1     
   12    6    7 2     
   13    6    8 am    
   14    8    9 1     
   15    8   31 1     
   16    9   22 ar    
   17    9   10 ar    
   18   10   11 ar    
   19   10   32 1     
   20   11   12 ar    
   21   11   33 1     
   22   12   13 1     
   23   12   21 ar    
   24   13   20 1     
   25   13   14 1     
   26   14   15 1     
   27   14   34 1     
   28   14   35 1     
   29   15   16 1     
   30   15   17 1     
   31   15   36 1     
   32   16   37 1     
   33   16   38 1     
   34   16   39 1     
   35   17   18 1     
   36   18   19 1     
   37   18   20 1     
   38   18   40 1     
   39   19   41 1     
   40   19   42 1     
   41   19   43 1     
   42   20   44 1     
   43   20   45 1     
   44   21   22 ar    
   45   22   46 1     
   46   23   24 1     
   47   23   25 1     
   48   23   47 1     
   49   24   48 1     
   50   24   49 1     
   51   24   50 1     
   52   25   51 1     
   53   25   52 1     
   54   25   53 1     
   55    3   54 1     
   56    3   55 1     
   57    7   56 1     
   58    7   57 1     
   59   13   58 1     
   60   17   59 1     
   61   17   60 1     
   62   21   61 1     
@<TRIPOS>SUBSTRUCTURE
      1 S1             1
@<TRIPOS>SET
LONE_PAIRS      STATIC     ATOMS    <user>   **** ""
8 54 55 56 57 58 59 60 61
DONOR_HYDROGENS      STATIC     ATOMS    <user>   **** ""
2 29 31
ATOM$BLUE        STATIC     ATOMS    COLORGROUP SYSTEM
8 54 55 56 57 58 59 60 61
ATOM$RED        STATIC     ATOMS    COLORGROUP SYSTEM
2 29 31
