AV-unprocessed.smi:160|AV-procd|sdf|1343|dock3
  -GOLD-   2262019 43D 1   1.00000     0.00000
 Structure written by MMmdl.
 29 30  0  0  0  0  0  0  0  0  1 V2000
  149.1114  136.5719  158.3090 N   0  0  0  0  0  0  0  0  0  0  0  0
  149.8144  135.9304  157.3700 C   0  0  0  0  0  0  0  0  0  0  0  0
  150.0400  134.7228  157.4272 O   0  0  0  0  0  0  0  0  0  0  0  0
  150.3206  136.7694  156.2294 C   0  0  0  0  0  0  0  0  0  0  0  0
  151.0496  136.2159  155.2153 N   0  0  0  0  0  0  0  0  0  0  0  0
  151.2572  137.3063  154.4883 C   0  0  0  0  0  0  0  0  0  0  0  0
  150.7028  138.4135  154.9920 N   0  0  0  0  0  0  0  0  0  0  0  0
  150.7440  139.8205  154.4915 C   0  0  2  0  0  0  0  0  0  0  0  0
  151.4093  140.5815  155.4561 O   0  0  0  0  0  0  0  0  0  0  0  0
  150.6176  141.6968  155.8584 C   0  0  2  0  0  0  0  0  0  0  0  0
  150.9062  142.0282  157.3305 C   0  0  0  0  0  0  0  0  0  0  0  0
  150.1795  143.1730  157.7221 O   0  0  0  0  0  0  0  0  0  0  0  0
  149.1852  141.2215  155.6093 C   0  0  1  0  0  0  0  0  0  0  0  0
  148.2557  142.2808  155.4754 O   0  0  0  0  0  0  0  0  0  0  0  0
  149.3256  140.3908  154.3397 C   0  0  1  0  0  0  0  0  0  0  0  0
  149.2220  141.1709  153.1627 O   0  0  0  0  0  0  0  0  0  0  0  0
  150.0877  138.0810  156.1547 N   0  0  0  0  0  0  0  0  0  0  0  0
  151.3049  139.7650  153.5572 H   0  0  0  0  0  0  0  0  0  0  0  0
  150.8397  142.5444  155.2068 H   0  0  0  0  0  0  0  0  0  0  0  0
  148.8653  140.5767  156.4288 H   0  0  0  0  0  0  0  0  0  0  0  0
  148.5813  139.5948  154.2857 H   0  0  0  0  0  0  0  0  0  0  0  0
  148.7453  136.0622  159.0994 H   0  0  0  0  0  0  0  0  0  0  0  0
  148.9517  137.5648  158.2200 H   0  0  0  0  0  0  0  0  0  0  0  0
  151.8263  137.2978  153.5703 H   0  0  0  0  0  0  0  0  0  0  0  0
  150.5879  141.2055  157.9711 H   0  0  0  0  0  0  0  0  0  0  0  0
  151.9731  142.1772  157.5005 H   0  0  0  0  0  0  0  0  0  0  0  0
  149.8699  143.6133  156.9455 H   0  0  0  0  0  0  0  0  0  0  0  0
  148.6560  143.0745  155.7964 H   0  0  0  0  0  0  0  0  0  0  0  0
  149.1671  140.5844  152.4234 H   0  0  0  0  0  0  0  0  0  0  0  0
  1  2  1  0  0  0  0
  1 22  1  0  0  0  0
  1 23  1  0  0  0  0
  2  3  2  0  0  0  0
  2  4  1  0  0  0  0
  4 17  2  0  0  0  0
  4  5  1  0  0  0  0
  5  6  2  0  0  0  0
  6  7  1  0  0  0  0
  6 24  1  0  0  0  0
  7  8  1  0  0  0  0
  7 17  1  0  0  0  0
  8 18  1  0  0  0  0
  8 15  1  0  0  0  0
  8  9  1  0  0  0  0
  9 10  1  0  0  0  0
 10 19  1  0  0  0  0
 10 11  1  0  0  0  0
 10 13  1  0  0  0  0
 11 12  1  0  0  0  0
 11 25  1  0  0  0  0
 11 26  1  0  0  0  0
 12 27  1  0  0  0  0
 13 20  1  0  0  0  0
 13 14  1  0  0  0  0
 13 15  1  0  0  0  0
 14 28  1  0  0  0  0
 15 21  1  0  0  0  0
 15 16  1  0  0  0  0
 16 29  1  0  0  0  0
M  END
> <s_m_source_file>
AV-unprocessed.smi

> <i_m_source_file_index>
160

> <i_lp_mmshare_version>
43012

> <i_f3d_flags>
0

> <s_epik_input>
W05IMl1DKD1PKWMxbltjSF1uKG4xKVtDQEBIXTJPW0NASF0oW0NIMl1bT0hdKVtDQEBIXShbT0hdKVtDQEhdMltPSF0=

> <s_epik_cmdline>
J2VwaWtfcHl0aG9uJywgJy1waCcsICc3LjAnLCAnLXRuJywgJzgnLCAnLW1hJywgJzIwMCcsICctbWV0YWxfYmluZGluZycsICctaW1hZScsICc8aW5maWxlLm1hZT4nLCAnLW9tYWUnLCAnPG91dGZpbGUubWFlPic=

> <r_lp_tautomer_probability>
1

> <r_epik_Ionization_Penalty>
1.06932e-05

> <r_epik_Ionization_Penalty_Charging>
0

> <r_epik_Ionization_Penalty_Neutral>
1.06932e-05

> <r_epik_State_Penalty>
-0

> <r_epik_Charging_Adjusted_Penalty>
0

> <i_epik_Tot_Q>
0

> <i_epik_Tot_abs_Q>
0

> <r_epik_Metal_State_Penalty>
0.0142097

> <b_epik_Metal_Only>
0

> <s_epik_Chemistry_Notes>
This compound contains an acetal/aminal-like group ( X-CH(R)-Y where X, Y are N, S, or O) that may be acid/base labile, releasing an aldehyde.

> <s_lp_Force_Field>
OPLS_2005

> <r_lp_Energy>
39.0499

> <b_lp_Chiralities_Consistent>
1

> <s_lp_Variant>
AV-unprocessed.smi:160-1

> <Gold.Version>
5.8.1

> <Gold.Id.Protein>
6NUR|6NUR_protein|mol2

> <Gold.PLP.Fitness>
43.4023

> <Gold.PLP.PLP>
-25.4197

> <Gold.PLP.part.hbond>
-7.3437

> <Gold.PLP.part.metal>
0.0000

> <Gold.PLP.part.buried>
0.1102

> <Gold.PLP.part.nonpolar>
-17.5047

> <Gold.PLP.part.repulsive>
0.2790

> <Gold.PLP.ligand.clash>
0.0000

> <Gold.PLP.ligand.torsion>
0.0510

> <Gold.PLP.Chemscore.Hbond>
5.0740

> <Gold.PLP.Chemscore.CHOScore>
0.9457

> <Gold.PLP.Chemscore.Metal>
0.0000

> <Gold.Chemscore.Hbonds>
donor molecule, donor type, donor heavy atom, donor atom, acceptor molecule, acceptor atom, score
      L1  H    12    27       P1  8028  1.00
      L1  H    14    28       P1  8028  0.96
      L1  H    16    29       P1  7957  0.76
      P1  H  6896  6907       L1     3  0.61
      P1  H  8011  8017       L1    16  0.75
      P1  H 10752 10765       L1     5  0.39
      L1  C     6    24       P1  7949  0.87

> <Gold.PLP.Chemscore.Internal.Correction>
0.0256

> <Gold.Rescore>
     Score         DG    S(hbond)    S(metal)    S(lipo)     H(rot)  DE(clash)    DE(int)     intcor
     11.84     -12.16       4.16        0.00      27.28       4.06       0.26       0.06       ----

> <Gold.Chemscore.Fitness>
11.8369

> <Gold.Chemscore.DG>
-12.1577

> <Gold.Chemscore.ZeroCoef>
-5.4800

> <Gold.Chemscore.Hbond>
4.1557

> <Gold.Chemscore.Metal>
0.0000

> <Gold.Chemscore.Lipo>
27.2770

> <Gold.Chemscore.Internal_Hbond>
0.0000

> <Gold.Chemscore.DEClash>
0.2566

> <Gold.Chemscore.DEInternal>
0.0642

> <Gold.Chemscore.Rot>
4.0600

> <Gold.Chemscore.Internal.Correction>
   9.000000E+99

> <Gold.Chemscore.Hbonds>
donor molecule, donor type, donor heavy atom, donor atom, acceptor molecule, acceptor atom, score
      L1  H    12    27       P1  8028  0.98
      L1  H    14    28       P1  8028  0.92
      L1  H    16    29       P1  7957  0.75
      P1  H  6896  6907       L1     3  0.36
      P1  H  8011  8017       L1    16  0.09
      P1  H 10752 10765       L1     5  0.01

> <Gold.Chemscore.Hbond.Weighted>
-13.8799

> <Gold.Chemscore.Metal.Weighted>
-0.0000

> <Gold.Chemscore.Lipo.Weighted>
-3.1914

> <Gold.Chemscore.Internal_Hbond.Weighted>
0.0000

> <Gold.Chemscore.DEClash.Weighted>
0.2566

> <Gold.Chemscore.DEInternal.Weighted>
0.0642

> <Gold.Chemscore.Rot.Weighted>
10.3936

> <Gold.Chemscore.Internal.Correction.Weighted>
   9.000000E+99

> <Gold.Protein.RotatedTorsions>
[ 6907 6896 6895 6894 ] final  -86.74 input  -60.11 | X-H torsion
[ 7974 7965 7964 7962 ] final -170.11 input  175.53 | X-H torsion
[ 8008 7997 7996 7995 ] final  -38.69 input   59.86 | X-H torsion
[ 10167 10162 10161 10158 ] final  115.63 input  -65.29 | X-H torsion
[ 10718 10713 10712 10709 ] final  -71.20 input   66.30 | X-H torsion
[ 10763 10752 10751 10750 ] final -171.35 input  -60.55 | X-H torsion
[ 11005 11000 10999 10996 ] final   51.34 input  -57.11 | X-H torsion

> <Gold.Protein.ActiveResidues>
 VAL166  LYS551  ARG553  GLY616  TRP617  ASP618  TYR619  PRO620  LYS621  CYS622 
 ASP623  PHE694  ASN695  SER759  ASP760  ASP761  ALA762  ILE779  LEU786  VAL792 
 PHE793  MET794  SER795  GLU796  ALA797  LYS798  CYS799  TRP800  GLU811  SER814 

> <Gold.Protein.RotatedAtoms>
  150.6866  134.3005  159.4703 H   0  0  0  0  0  0  0  0  0  0  0  0  # atno 6907 bound_to 6896
  152.0901  134.9410  160.0581 H   0  0  0  0  0  0  0  0  0  0  0  0  # atno 6908 bound_to 6896
  152.0730  133.4081  159.4504 H   0  0  0  0  0  0  0  0  0  0  0  0  # atno 6909 bound_to 6896
  144.7175  140.2121  143.6326 H   0  0  0  0  0  0  0  0  0  0  0  0  # atno 7974 bound_to 7965
  154.4033  140.1571  156.2741 H   0  0  0  0  0  0  0  0  0  0  0  0  # atno 8008 bound_to 7997
  155.8927  140.3437  155.5946 H   0  0  0  0  0  0  0  0  0  0  0  0  # atno 8009 bound_to 7997
  155.7540  140.0808  157.2178 H   0  0  0  0  0  0  0  0  0  0  0  0  # atno 8010 bound_to 7997
  139.6304  144.7114  151.2445 H   0  0  0  0  0  0  0  0  0  0  0  0  # atno 10167 bound_to 10162
  156.0373  130.4346  150.2408 H   0  0  0  0  0  0  0  0  0  0  0  0  # atno 10718 bound_to 10713
  154.6315  135.2887  155.0211 H   0  0  0  0  0  0  0  0  0  0  0  0  # atno 10763 bound_to 10752
  154.1370  135.6524  153.4938 H   0  0  0  0  0  0  0  0  0  0  0  0  # atno 10764 bound_to 10752
  153.0282  135.5324  154.7144 H   0  0  0  0  0  0  0  0  0  0  0  0  # atno 10765 bound_to 10752
  140.0941  134.5169  155.8824 H   0  0  0  0  0  0  0  0  0  0  0  0  # atno 11005 bound_to 11000
  145.8581  139.2209  143.1733 LP  0  0  0  0  0  0  0  0  0  0  0  0  # atno 17320 bound_to 7965
  146.0199  140.8358  142.9928 LP  0  0  0  0  0  0  0  0  0  0  0  0  # atno 17321 bound_to 7965
  140.7435  143.6491  150.8264 LP  0  0  0  0  0  0  0  0  0  0  0  0  # atno 17342 bound_to 10162
  140.0115  143.5637  152.2837 LP  0  0  0  0  0  0  0  0  0  0  0  0  # atno 17343 bound_to 10162
  157.0506  131.0061  151.3255 LP  0  0  0  0  0  0  0  0  0  0  0  0  # atno 17370 bound_to 10713
  157.5143  130.7958  149.7739 LP  0  0  0  0  0  0  0  0  0  0  0  0  # atno 17371 bound_to 10713
  141.2087  133.6676  156.6387 LP  0  0  0  0  0  0  0  0  0  0  0  0  # atno 17394 bound_to 11000
  140.3311  134.7928  157.4327 LP  0  0  0  0  0  0  0  0  0  0  0  0  # atno 17395 bound_to 11000

$$$$
