AV-unprocessed.smi:3348|AV-procd|sdf|12922|dock9
  -GOLD-   2272019343D 1   1.00000     0.00000
 Structure written by MMmdl.
 47 48  0  0  0  0  0  0  0  0  2 V2000
  147.2460  142.0301  154.2672 C   0  0  0  0  0  0  0  0  0  0  0  0
  148.3331  141.1554  154.9134 C   0  0  1  0  0  0  0  0  0  0  0  0
  148.9233  140.1708  153.8825 C   0  0  0  0  0  0  0  0  0  0  0  0
  149.9830  139.3372  154.4271 N   0  0  0  0  0  0  0  0  0  0  0  0
  150.0056  137.9649  154.5642 C   0  0  0  0  0  0  0  0  0  0  0  0
  151.1951  137.6328  155.1464 C   0  0  0  0  0  0  0  0  0  0  0  0
  151.8366  138.8872  155.3444 C   0  0  0  0  0  0  0  0  0  0  0  0
  151.1066  139.9049  154.9175 N   0  0  0  0  0  0  0  0  0  0  0  0
  149.4098  141.9888  155.4957 N   0  3  0  0  0  0  0  0  0  0  0  0
  149.9035  141.5514  156.8180 C   0  0  0  0  0  0  0  0  0  0  0  0
  151.2292  142.2383  157.1584 C   0  0  0  0  0  0  0  0  0  0  0  0
  151.7738  141.6167  158.3129 O   0  0  0  0  0  0  0  0  0  0  0  0
  152.4369  142.5040  159.2055 C   0  0  1  0  0  0  0  0  0  0  0  0
  151.5411  143.7311  159.4789 C   0  0  0  0  0  0  0  0  0  0  0  0
  152.1547  144.6520  160.5437 C   0  0  0  0  0  0  0  0  0  0  0  0
  152.4362  143.8829  161.8414 C   0  0  0  0  0  0  0  0  0  0  0  0
  153.3351  142.6661  161.5760 C   0  0  0  0  0  0  0  0  0  0  0  0
  152.7311  141.7297  160.5104 C   0  0  2  0  0  0  0  0  0  0  0  0
  153.6543  140.5256  160.2622 C   0  0  0  0  0  0  0  0  0  0  0  0
  146.4668  141.4137  153.8179 H   0  0  0  0  0  0  0  0  0  0  0  0
  147.6603  142.6629  153.4816 H   0  0  0  0  0  0  0  0  0  0  0  0
  146.7599  142.6783  154.9959 H   0  0  0  0  0  0  0  0  0  0  0  0
  147.8729  140.5766  155.7156 H   0  0  0  0  0  0  0  0  0  0  0  0
  148.1425  139.5113  153.5013 H   0  0  0  0  0  0  0  0  0  0  0  0
  149.3180  140.7151  153.0231 H   0  0  0  0  0  0  0  0  0  0  0  0
  149.1833  137.3443  154.2393 H   0  0  0  0  0  0  0  0  0  0  0  0
  151.5504  136.6449  155.3995 H   0  0  0  0  0  0  0  0  0  0  0  0
  152.8022  139.0873  155.7849 H   0  0  0  0  0  0  0  0  0  0  0  0
  150.1940  141.9566  154.8596 H   0  0  0  0  0  0  0  0  0  0  0  0
  149.1667  141.7636  157.5926 H   0  0  0  0  0  0  0  0  0  0  0  0
  150.0504  140.4709  156.7992 H   0  0  0  0  0  0  0  0  0  0  0  0
  151.9215  142.1256  156.3228 H   0  0  0  0  0  0  0  0  0  0  0  0
  151.0737  143.3061  157.3134 H   0  0  0  0  0  0  0  0  0  0  0  0
  153.3865  142.8304  158.7769 H   0  0  0  0  0  0  0  0  0  0  0  0
  151.3797  144.3023  158.5652 H   0  0  0  0  0  0  0  0  0  0  0  0
  150.5574  143.3985  159.8122 H   0  0  0  0  0  0  0  0  0  0  0  0
  153.0822  145.0831  160.1644 H   0  0  0  0  0  0  0  0  0  0  0  0
  151.4839  145.4878  160.7448 H   0  0  0  0  0  0  0  0  0  0  0  0
  152.9089  144.5423  162.5698 H   0  0  0  0  0  0  0  0  0  0  0  0
  151.4956  143.5545  162.2855 H   0  0  0  0  0  0  0  0  0  0  0  0
  154.3189  143.0076  161.2514 H   0  0  0  0  0  0  0  0  0  0  0  0
  153.4909  142.1206  162.5074 H   0  0  0  0  0  0  0  0  0  0  0  0
  151.7859  141.3479  160.8997 H   0  0  0  0  0  0  0  0  0  0  0  0
  154.6104  140.8389  159.8420 H   0  0  0  0  0  0  0  0  0  0  0  0
  153.2037  139.8146  159.5693 H   0  0  0  0  0  0  0  0  0  0  0  0
  153.8587  139.9903  161.1898 H   0  0  0  0  0  0  0  0  0  0  0  0
  149.0895  142.9447  155.5599 H   0  0  0  0  0  0  0  0  0  0  0  0
  1  2  1  0  0  0  0
  1 20  1  0  0  0  0
  1 21  1  0  0  0  0
  1 22  1  0  0  0  0
  2  3  1  0  0  0  0
  2  9  1  0  0  0  0
  2 23  1  0  0  0  0
  3  4  1  0  0  0  0
  3 24  1  0  0  0  0
  3 25  1  0  0  0  0
  4  8  1  0  0  0  0
  4  5  1  0  0  0  0
  5  6  2  0  0  0  0
  5 26  1  0  0  0  0
  6  7  1  0  0  0  0
  6 27  1  0  0  0  0
  7  8  2  0  0  0  0
  7 28  1  0  0  0  0
  9 10  1  0  0  0  0
  9 29  1  0  0  0  0
  9 47  1  0  0  0  0
 10 11  1  0  0  0  0
 10 30  1  0  0  0  0
 10 31  1  0  0  0  0
 11 12  1  0  0  0  0
 11 32  1  0  0  0  0
 11 33  1  0  0  0  0
 12 13  1  0  0  0  0
 13 18  1  0  0  0  0
 13 14  1  0  0  0  0
 13 34  1  0  0  0  0
 14 15  1  0  0  0  0
 14 35  1  0  0  0  0
 14 36  1  0  0  0  0
 15 16  1  0  0  0  0
 15 37  1  0  0  0  0
 15 38  1  0  0  0  0
 16 17  1  0  0  0  0
 16 39  1  0  0  0  0
 16 40  1  0  0  0  0
 17 18  1  0  0  0  0
 17 41  1  0  0  0  0
 17 42  1  0  0  0  0
 18 19  1  0  0  0  0
 18 43  1  0  0  0  0
 19 44  1  0  0  0  0
 19 45  1  0  0  0  0
 19 46  1  0  0  0  0
M  CHG  1   9   1
M  END
> <s_m_source_file>
AV-unprocessed.smi

> <i_m_source_file_index>
3348

> <i_lp_mmshare_version>
43012

> <i_f3d_flags>
0

> <s_epik_input>
bjFbY0hdW2NIXVtjSF1uMVtDSDJdW0NAQEhdKFtDSDNdKVtOSF1bQ0gyXVtDSDJdT1tDQEBIXTJbQ0gyXVtDSDJdW0NIMl1bQ0gyXVtDQEhdMltDSDNd

> <s_epik_cmdline>
J2VwaWtfcHl0aG9uJywgJy1waCcsICc3LjAnLCAnLXRuJywgJzgnLCAnLW1hJywgJzIwMCcsICctbWV0YWxfYmluZGluZycsICctaW1hZScsICc8aW5maWxlLm1hZT4nLCAnLW9tYWUnLCAnPG91dGZpbGUubWFlPic=

> <r_lp_tautomer_probability>
1

> <r_epik_Ionization_Penalty>
0.00925088

> <r_epik_Ionization_Penalty_Charging>
0.00924645

> <r_epik_Ionization_Penalty_Neutral>
4.42413e-06

> <r_epik_State_Penalty>
0.0070118

> <r_epik_Charging_Adjusted_Penalty>
0.0162583

> <i_epik_Tot_Q>
1

> <i_epik_Tot_abs_Q>
1

> <r_epik_Metal_State_Penalty>
0.00701222

> <b_epik_Metal_Only>
0

> <s_lp_Force_Field>
OPLS_2005

> <r_lp_Energy>
15.644

> <b_lp_Chiralities_Consistent>
1

> <s_lp_Variant>
AV-unprocessed.smi:3348-8

> <Gold.Version>
5.8.1

> <Gold.Id.Protein>
6NUR|6NUR_protein|mol2

> <Gold.PLP.Fitness>
58.3715

> <Gold.PLP.PLP>
-48.1773

> <Gold.PLP.part.hbond>
-2.0000

> <Gold.PLP.part.metal>
0.0000

> <Gold.PLP.part.buried>
-4.0095

> <Gold.PLP.part.nonpolar>
-41.8174

> <Gold.PLP.part.repulsive>
0.2268

> <Gold.PLP.ligand.clash>
0.0000

> <Gold.PLP.ligand.torsion>
0.9711

> <Gold.PLP.Chemscore.Hbond>
3.0000

> <Gold.PLP.Chemscore.CHOScore>
1.0000

> <Gold.PLP.Chemscore.Metal>
0.0000

> <Gold.Chemscore.Hbonds>
donor molecule, donor type, donor heavy atom, donor atom, acceptor molecule, acceptor atom, score
      L1  H     9    47       P1  8028  2.00
      P1  H  7989  7998       L1     8  1.00
      L1  C     5    26       P1  7948  0.70

> <Gold.PLP.Chemscore.Internal.Correction>
0.1364

> <Gold.Rescore>
     Score         DG    S(hbond)    S(metal)    S(lipo)     H(rot)  DE(clash)    DE(int)     intcor
     20.00     -22.70       1.81        0.00     135.39       1.82       1.48       1.23       ----

> <Gold.Chemscore.Fitness>
19.9953

> <Gold.Chemscore.DG>
-22.7026

> <Gold.Chemscore.ZeroCoef>
-5.4800

> <Gold.Chemscore.Hbond>
1.8058

> <Gold.Chemscore.Metal>
0.0000

> <Gold.Chemscore.Lipo>
135.3928

> <Gold.Chemscore.Internal_Hbond>
0.0000

> <Gold.Chemscore.DEClash>
1.4750

> <Gold.Chemscore.DEInternal>
1.2323

> <Gold.Chemscore.Rot>
1.8163

> <Gold.Chemscore.Internal.Correction>
   9.000000E+99

> <Gold.Chemscore.Hbonds>
donor molecule, donor type, donor heavy atom, donor atom, acceptor molecule, acceptor atom, score
      L1  H     9    47       P1  8028  1.00
      P1  H  7989  7998       L1     8  0.29

> <Gold.Chemscore.Hbond.Weighted>
-6.0314

> <Gold.Chemscore.Metal.Weighted>
-0.0000

> <Gold.Chemscore.Lipo.Weighted>
-15.8410

> <Gold.Chemscore.Internal_Hbond.Weighted>
0.0000

> <Gold.Chemscore.DEClash.Weighted>
1.4750

> <Gold.Chemscore.DEInternal.Weighted>
1.2323

> <Gold.Chemscore.Rot.Weighted>
4.6497

> <Gold.Chemscore.Internal.Correction.Weighted>
   9.000000E+99

> <Gold.Protein.RotatedTorsions>
[ 6907 6896 6895 6894 ] final -165.80 input  -60.11 | X-H torsion
[ 7974 7965 7964 7962 ] final   96.70 input  175.53 | X-H torsion
[ 8008 7997 7996 7995 ] final  -73.52 input   59.86 | X-H torsion
[ 10167 10162 10161 10158 ] final   23.92 input  -65.29 | X-H torsion
[ 10718 10713 10712 10709 ] final  164.65 input   66.30 | X-H torsion
[ 10763 10752 10751 10750 ] final -111.53 input  -60.55 | X-H torsion
[ 11005 11000 10999 10996 ] final -120.62 input  -57.11 | X-H torsion

> <Gold.Protein.ActiveResidues>
 VAL166  LYS551  ARG553  GLY616  TRP617  ASP618  TYR619  PRO620  LYS621  CYS622 
 ASP623  PHE694  ASN695  SER759  ASP760  ASP761  ALA762  ILE779  LEU786  VAL792 
 PHE793  MET794  SER795  GLU796  ALA797  LYS798  CYS799  TRP800  GLU811  SER814 

> <Gold.Protein.RotatedAtoms>
  151.4334  133.3663  159.2771 H   0  0  0  0  0  0  0  0  0  0  0  0  # atno 6907 bound_to 6896
  150.9209  134.8628  159.7498 H   0  0  0  0  0  0  0  0  0  0  0  0  # atno 6908 bound_to 6896
  152.4981  134.4272  159.9552 H   0  0  0  0  0  0  0  0  0  0  0  0  # atno 6909 bound_to 6896
  145.4354  139.2306  143.3121 H   0  0  0  0  0  0  0  0  0  0  0  0  # atno 7974 bound_to 7965
  154.5254  140.0778  156.8248 H   0  0  0  0  0  0  0  0  0  0  0  0  # atno 8008 bound_to 7997
  155.3487  140.3411  155.4221 H   0  0  0  0  0  0  0  0  0  0  0  0  # atno 8009 bound_to 7997
  156.1725  140.1624  156.8408 H   0  0  0  0  0  0  0  0  0  0  0  0  # atno 8010 bound_to 7997
  140.5230  143.9970  150.6426 H   0  0  0  0  0  0  0  0  0  0  0  0  # atno 10167 bound_to 10162
  157.0914  131.0418  151.2535 H   0  0  0  0  0  0  0  0  0  0  0  0  # atno 10718 bound_to 10713
  154.8305  135.4524  154.1053 H   0  0  0  0  0  0  0  0  0  0  0  0  # atno 10763 bound_to 10752
  153.2331  135.6908  153.7874 H   0  0  0  0  0  0  0  0  0  0  0  0  # atno 10764 bound_to 10752
  153.7249  135.3336  155.3250 H   0  0  0  0  0  0  0  0  0  0  0  0  # atno 10765 bound_to 10752
  141.0130  134.0236  157.3388 H   0  0  0  0  0  0  0  0  0  0  0  0  # atno 11005 bound_to 11000
  146.2585  140.5096  142.8863 LP  0  0  0  0  0  0  0  0  0  0  0  0  # atno 17320 bound_to 7965
  144.8156  140.6461  143.6387 LP  0  0  0  0  0  0  0  0  0  0  0  0  # atno 17321 bound_to 7965
  140.3324  143.3069  152.0673 LP  0  0  0  0  0  0  0  0  0  0  0  0  # atno 17342 bound_to 10162
  139.4929  144.6500  151.6697 LP  0  0  0  0  0  0  0  0  0  0  0  0  # atno 17343 bound_to 10162
  157.4718  130.7713  149.7330 LP  0  0  0  0  0  0  0  0  0  0  0  0  # atno 17370 bound_to 10713
  155.9897  130.3950  150.3061 LP  0  0  0  0  0  0  0  0  0  0  0  0  # atno 17371 bound_to 10713
  139.9101  135.0188  156.7654 LP  0  0  0  0  0  0  0  0  0  0  0  0  # atno 17394 bound_to 11000
  140.6702  133.9567  155.7852 LP  0  0  0  0  0  0  0  0  0  0  0  0  # atno 17395 bound_to 11000

$$$$
