#       Name:                AV-unprocessed.smi:3056
#       Creating user name   scv26
#       Creation time:       Fri Mar 27 17:06:19 2020


#       File generated by GOLD software.
#

@<TRIPOS>MOLECULE
AV-unprocessed.smi:3056
    53    54     1
SMALL
NO_CHARGES


@<TRIPOS>ATOM
      1 ****        -3.7561  -2.1845  -1.6295 C.3            1 S1                 0.0000
      2 ****        -3.3041  -0.9350  -0.9303 C.2            1 S1                 0.0000
      3 ****        -2.8516   0.2816  -1.5153 C.2            1 S1                 0.0000
      4 ****        -2.5153   1.1905  -0.6155 N.2            1 S1                 0.0000
      5 ****        -2.7458   0.5927   0.5756 N.pl3          1 S1                 0.0000
      6 ****        -2.4538   1.2909   1.8225 C.3            1 S1                 0.0000
      7 ****        -3.2233   2.6259   1.8670 C.3            1 S1                 0.0000
      8 ****        -0.9231   1.4579   2.0472 C.3            1 S1                 0.0000
      9 ****        -0.5904   2.1891   3.3599 C.3            1 S1                 0.0000
     10 ****        -0.2787   0.1456   2.1436 N.3            1 S1                 0.0000
     11 ****         0.4384  -0.2905   0.9302 C.3            1 S1                 0.0000
     12 ****         1.7149   0.5048   0.5894 C.2            1 S1                 0.0000
     13 ****         2.1447   1.3255   1.4021 O.2            1 S1                 0.0000
     14 ****         2.3401   0.2674  -0.5892 N.am           1 S1                 0.0000
     15 ****         3.5823   0.9368  -0.9853 C.3            1 S1                 0.0000
     16 ****         4.6958  -0.1216  -1.0680 C.3            1 S1                 0.0000
     17 ****         4.3219  -1.1366  -1.9969 O.3            1 S1                 0.0000
     18 ****         3.1005  -1.7920  -1.6585 C.3            1 S1                 0.0000
     19 ****         2.8250  -2.8672  -2.7154 C.3            1 S1                 0.0000
     20 ****         1.9684  -0.7478  -1.5807 C.3            1 S1                 0.0000
     21 ****        -3.2236  -0.6909   0.4113 C.2            1 S1                 0.0000
     22 ****        -3.6072  -2.1232  -2.7076 H              1 S1                 0.0000
     23 ****        -4.8158  -2.3776  -1.4622 H              1 S1                 0.0000
     24 ****        -3.2093  -3.0604  -1.2797 H              1 S1                 0.0000
     25 ****        -2.7528   0.5278  -2.5623 H              1 S1                 0.0000
     26 ****        -2.8482   0.6712   2.6297 H              1 S1                 0.0000
     27 ****        -3.1906   3.0757   2.8590 H              1 S1                 0.0000
     28 ****        -4.2755   2.4784   1.6211 H              1 S1                 0.0000
     29 ****        -2.8149   3.3483   1.1596 H              1 S1                 0.0000
     30 ****        -0.4998   2.0420   1.2289 H              1 S1                 0.0000
     31 ****        -0.9281   3.2250   3.3387 H              1 S1                 0.0000
     32 ****         0.4858   2.2146   3.5358 H              1 S1                 0.0000
     33 ****        -1.0549   1.7022   4.2182 H              1 S1                 0.0000
     34 ****        -0.9554  -0.5383   2.4496 H              1 S1                 0.0000
     35 ****         0.7249  -1.3337   1.0655 H              1 S1                 0.0000
     36 ****        -0.2483  -0.2604   0.0868 H              1 S1                 0.0000
     37 ****         3.4435   1.4145  -1.9562 H              1 S1                 0.0000
     38 ****         3.8783   1.7307  -0.2984 H              1 S1                 0.0000
     39 ****         5.6284   0.3348  -1.3996 H              1 S1                 0.0000
     40 ****         4.8863  -0.5634  -0.0885 H              1 S1                 0.0000
     41 ****         3.2164  -2.2789  -0.6885 H              1 S1                 0.0000
     42 ****         1.9032  -3.4063  -2.4961 H              1 S1                 0.0000
     43 ****         3.6352  -3.5957  -2.7502 H              1 S1                 0.0000
     44 ****         2.7283  -2.4283  -3.7089 H              1 S1                 0.0000
     45 ****         1.0289  -1.2528  -1.3651 H              1 S1                 0.0000
     46 ****         1.8307  -0.2654  -2.5499 H              1 S1                 0.0000
     47 ****        -3.4564  -1.3228   1.2558 H              1 S1                 0.0000
     48 ****        -2.1680   2.1138  -0.7792 LP             1 S1                 0.0000
     49 ****         0.4478   0.2356   2.8248 LP             1 S1                 0.0000
     50 ****         1.6668   1.4683   2.2688 LP             1 S1                 0.0000
     51 ****         2.9714   1.8486   1.1949 LP             1 S1                 0.0000
     52 ****         5.0505  -1.8208  -2.0291 LP             1 S1                 0.0000
     53 ****         4.2177  -0.7179  -2.8990 LP             1 S1                 0.0000
@<TRIPOS>BOND
    1    1    2 1     
    2    1   22 1     
    3    1   23 1     
    4    1   24 1     
    5    2   21 2     
    6    2    3 1     
    7    3    4 2     
    8    3   25 1     
    9    4    5 1     
   10    5    6 1     
   11    5   21 1     
   12    6    7 1     
   13    6    8 1     
   14    6   26 1     
   15    7   27 1     
   16    7   28 1     
   17    7   29 1     
   18    8    9 1     
   19    8   10 1     
   20    8   30 1     
   21    9   31 1     
   22    9   32 1     
   23    9   33 1     
   24   10   11 1     
   25   10   34 1     
   26   11   12 1     
   27   11   35 1     
   28   11   36 1     
   29   12   13 2     
   30   12   14 am    
   31   14   20 1     
   32   14   15 1     
   33   15   16 1     
   34   15   37 1     
   35   15   38 1     
   36   16   17 1     
   37   16   39 1     
   38   16   40 1     
   39   17   18 1     
   40   18   19 1     
   41   18   20 1     
   42   18   41 1     
   43   19   42 1     
   44   19   43 1     
   45   19   44 1     
   46   20   45 1     
   47   20   46 1     
   48   21   47 1     
   49    4   48 1     
   50   10   49 1     
   51   13   50 1     
   52   13   51 1     
   53   17   52 1     
   54   17   53 1     
@<TRIPOS>SUBSTRUCTURE
      1 S1             1
@<TRIPOS>SET
LONE_PAIRS      STATIC     ATOMS    <user>   **** ""
6 48 49 50 51 52 53
DONOR_HYDROGENS      STATIC     ATOMS    <user>   **** ""
1 34
ATOM$BLUE        STATIC     ATOMS    COLORGROUP SYSTEM
6 48 49 50 51 52 53
ATOM$RED        STATIC     ATOMS    COLORGROUP SYSTEM
1 34
