AV-unprocessed.smi:2986|AV-procd|sdf|11383|dock2
  -GOLD-   2272016303D 1   1.00000     0.00000
 Structure written by MMmdl.
 41 43  0  0  0  0  0  0  0  0  2 V2000
  148.3821  141.5338  154.2395 C   0  0  0  0  0  0  0  0  0  0  0  0
  149.2331  140.7116  155.0178 O   0  0  0  0  0  0  0  0  0  0  0  0
  150.1576  141.4614  155.7896 C   0  0  0  0  0  0  0  0  0  0  0  0
  151.3180  140.5590  156.2303 C   0  0  0  0  0  0  0  0  0  0  0  0
  151.7904  140.8915  157.5662 N   0  0  0  0  0  0  0  0  0  0  0  0
  152.1995  140.0469  158.5453 C   0  0  0  0  0  0  0  0  0  0  0  0
  152.1830  138.2910  158.3610 S   0  0  0  0  0  0  0  0  0  0  0  0
  151.2237  137.8403  159.8456 C   0  0  0  0  0  0  0  0  0  0  0  0
  149.9907  136.9794  159.5507 C   0  0  0  0  0  0  0  0  0  0  0  0
  150.0564  136.1178  158.6730 O   0  0  0  0  0  0  0  0  0  0  0  0
  148.9506  137.2949  160.3608 N   0  5  0  0  0  0  0  0  0  0  0  0
  148.1070  136.3355  160.7668 C   0  0  0  0  0  0  0  0  0  0  0  0
  147.4768  136.2553  162.0385 C   0  0  0  0  0  0  0  0  0  0  0  0
  146.7431  135.1065  161.9504 C   0  0  0  0  0  0  0  0  0  0  0  0
  145.8352  134.4089  162.9039 C   0  0  0  0  0  0  0  0  0  0  0  0
  146.9184  134.5262  160.7327 O   0  0  0  0  0  0  0  0  0  0  0  0
  147.7975  135.3167  159.9829 N   0  0  0  0  0  0  0  0  0  0  0  0
  152.6274  140.6263  159.6672 N   0  0  0  0  0  0  0  0  0  0  0  0
  152.4413  141.9688  159.4073 C   0  0  0  0  0  0  0  0  0  0  0  0
  152.6873  143.1023  160.2147 C   0  0  0  0  0  0  0  0  0  0  0  0
  152.4219  144.3980  159.7255 C   0  0  0  0  0  0  0  0  0  0  0  0
  151.9113  144.5786  158.4237 C   0  0  0  0  0  0  0  0  0  0  0  0
  151.6604  143.4624  157.6026 C   0  0  0  0  0  0  0  0  0  0  0  0
  151.9217  142.1705  158.0978 C   0  0  0  0  0  0  0  0  0  0  0  0
  147.6957  140.9110  153.6661 H   0  0  0  0  0  0  0  0  0  0  0  0
  148.9542  142.1398  153.5362 H   0  0  0  0  0  0  0  0  0  0  0  0
  147.7883  142.1963  154.8705 H   0  0  0  0  0  0  0  0  0  0  0  0
  150.5424  142.2962  155.2020 H   0  0  0  0  0  0  0  0  0  0  0  0
  149.6594  141.8820  156.6648 H   0  0  0  0  0  0  0  0  0  0  0  0
  151.0038  139.5152  156.2203 H   0  0  0  0  0  0  0  0  0  0  0  0
  152.1420  140.6325  155.5232 H   0  0  0  0  0  0  0  0  0  0  0  0
  151.8811  137.3550  160.5676 H   0  0  0  0  0  0  0  0  0  0  0  0
  150.8905  138.7628  160.3211 H   0  0  0  0  0  0  0  0  0  0  0  0
  147.5481  136.9335  162.8755 H   0  0  0  0  0  0  0  0  0  0  0  0
  146.3841  133.6697  163.4873 H   0  0  0  0  0  0  0  0  0  0  0  0
  145.0328  133.8957  162.3737 H   0  0  0  0  0  0  0  0  0  0  0  0
  145.3816  135.1182  163.5964 H   0  0  0  0  0  0  0  0  0  0  0  0
  153.0775  142.9722  161.2131 H   0  0  0  0  0  0  0  0  0  0  0  0
  152.6113  145.2567  160.3525 H   0  0  0  0  0  0  0  0  0  0  0  0
  151.7118  145.5741  158.0558 H   0  0  0  0  0  0  0  0  0  0  0  0
  151.2705  143.5969  156.6048 H   0  0  0  0  0  0  0  0  0  0  0  0
  1  2  1  0  0  0  0
  1 25  1  0  0  0  0
  1 26  1  0  0  0  0
  1 27  1  0  0  0  0
  2  3  1  0  0  0  0
  3  4  1  0  0  0  0
  3 28  1  0  0  0  0
  3 29  1  0  0  0  0
  4  5  1  0  0  0  0
  4 30  1  0  0  0  0
  4 31  1  0  0  0  0
  5 24  1  0  0  0  0
  5  6  1  0  0  0  0
  6  7  1  0  0  0  0
  6 18  2  0  0  0  0
  7  8  1  0  0  0  0
  8  9  1  0  0  0  0
  8 32  1  0  0  0  0
  8 33  1  0  0  0  0
  9 10  2  0  0  0  0
  9 11  1  0  0  0  0
 11 12  1  0  0  0  0
 12 17  2  0  0  0  0
 12 13  1  0  0  0  0
 13 14  2  0  0  0  0
 13 34  1  0  0  0  0
 14 15  1  0  0  0  0
 14 16  1  0  0  0  0
 15 35  1  0  0  0  0
 15 36  1  0  0  0  0
 15 37  1  0  0  0  0
 16 17  1  0  0  0  0
 18 19  1  0  0  0  0
 19 24  2  0  0  0  0
 19 20  1  0  0  0  0
 20 21  2  0  0  0  0
 20 38  1  0  0  0  0
 21 22  1  0  0  0  0
 21 39  1  0  0  0  0
 22 23  2  0  0  0  0
 22 40  1  0  0  0  0
 23 24  1  0  0  0  0
 23 41  1  0  0  0  0
M  CHG  1  11  -1
M  END
> <s_m_source_file>
AV-unprocessed.smi

> <i_m_source_file_index>
2986

> <i_lp_mmshare_version>
43012

> <i_f3d_flags>
0

> <s_epik_input>
W2NIXTFbY0hdW2NIXVtjSF1jKGMxMiluKFtDSDJdW0NIMl1PW0NIM10pYyhuMilTW0NIMl1DKD1PKVtOSF1jM1tjSF1jKFtDSDNdKW9uMw==

> <s_epik_cmdline>
J2VwaWtfcHl0aG9uJywgJy1waCcsICc3LjAnLCAnLXRuJywgJzgnLCAnLW1hJywgJzIwMCcsICctbWV0YWxfYmluZGluZycsICctaW1hZScsICc8aW5maWxlLm1hZT4nLCAnLW9tYWUnLCAnPG91dGZpbGUubWFlPic=

> <r_epik_Ionization_Penalty>
4.21562

> <r_epik_Ionization_Penalty_Charging>
4.18608

> <r_epik_Ionization_Penalty_Neutral>
0.0295463

> <r_epik_State_Penalty>
4.20602

> <r_epik_Charging_Adjusted_Penalty>
8.3921

> <i_epik_Tot_Q>
-1

> <i_epik_Tot_abs_Q>
1

> <r_epik_Metal_State_Penalty>
0.721027

> <b_epik_Metal_Only>
1

> <s_lp_Force_Field>
OPLS_2005

> <r_lp_Energy>
2.9865

> <b_lp_Chiralities_Consistent>
1

> <s_lp_Variant>
AV-unprocessed.smi:2986-3

> <Gold.Version>
5.8.1

> <Gold.Id.Protein>
6NUR|6NUR_protein|mol2

> <Gold.PLP.Fitness>
51.7499

> <Gold.PLP.PLP>
-50.2801

> <Gold.PLP.part.hbond>
-2.0742

> <Gold.PLP.part.metal>
0.0000

> <Gold.PLP.part.buried>
-6.2341

> <Gold.PLP.part.nonpolar>
-43.7385

> <Gold.PLP.part.repulsive>
0.1110

> <Gold.PLP.ligand.clash>
0.0000

> <Gold.PLP.ligand.torsion>
1.8453

> <Gold.PLP.Chemscore.Hbond>
1.6168

> <Gold.PLP.Chemscore.CHOScore>
0.0000

> <Gold.PLP.Chemscore.Metal>
0.0000

> <Gold.Chemscore.Hbonds>
donor molecule, donor type, donor heavy atom, donor atom, acceptor molecule, acceptor atom, score
      P1  H  6896  6907       L1    10  0.99
      P1  H  6931  6943       L1    11  1.09

> <Gold.PLP.Chemscore.Internal.Correction>
0.3100

> <Gold.Rescore>
     Score         DG    S(hbond)    S(metal)    S(lipo)     H(rot)  DE(clash)    DE(int)     intcor
     13.71     -17.09       0.85        0.00     123.39       2.21       0.09       3.30       ----

> <Gold.Chemscore.Fitness>
13.7052

> <Gold.Chemscore.DG>
-17.0933

> <Gold.Chemscore.ZeroCoef>
-5.4800

> <Gold.Chemscore.Hbond>
0.8466

> <Gold.Chemscore.Metal>
0.0000

> <Gold.Chemscore.Lipo>
123.3900

> <Gold.Chemscore.Internal_Hbond>
0.0000

> <Gold.Chemscore.DEClash>
0.0925

> <Gold.Chemscore.DEInternal>
3.2955

> <Gold.Chemscore.Rot>
2.2073

> <Gold.Chemscore.Internal.Correction>
   9.000000E+99

> <Gold.Chemscore.Hbonds>
donor molecule, donor type, donor heavy atom, donor atom, acceptor molecule, acceptor atom, score
      P1  H  6896  6907       L1    10  0.37
      P1  H  6931  6943       L1    11  0.14

> <Gold.Chemscore.Hbond.Weighted>
-2.8275

> <Gold.Chemscore.Metal.Weighted>
-0.0000

> <Gold.Chemscore.Lipo.Weighted>
-14.4366

> <Gold.Chemscore.Internal_Hbond.Weighted>
0.0000

> <Gold.Chemscore.DEClash.Weighted>
0.0925

> <Gold.Chemscore.DEInternal.Weighted>
3.2955

> <Gold.Chemscore.Rot.Weighted>
5.6508

> <Gold.Chemscore.Internal.Correction.Weighted>
   9.000000E+99

> <Gold.Protein.RotatedTorsions>
[ 6907 6896 6895 6894 ] final  -66.17 input  -60.11 | X-H torsion
[ 7974 7965 7964 7962 ] final    4.56 input  175.53 | X-H torsion
[ 8008 7997 7996 7995 ] final  -84.79 input   59.86 | X-H torsion
[ 10167 10162 10161 10158 ] final -175.32 input  -65.29 | X-H torsion
[ 10718 10713 10712 10709 ] final   65.65 input   66.30 | X-H torsion
[ 10763 10752 10751 10750 ] final   60.85 input  -60.55 | X-H torsion
[ 11005 11000 10999 10996 ] final -127.53 input  -57.11 | X-H torsion

> <Gold.Protein.ActiveResidues>
 VAL166  LYS551  ARG553  GLY616  TRP617  ASP618  TYR619  PRO620  LYS621  CYS622 
 ASP623  PHE694  ASN695  SER759  ASP760  ASP761  ALA762  ILE779  LEU786  VAL792 
 PHE793  MET794  SER795  GLU796  ALA797  LYS798  CYS799  TRP800  GLU811  SER814 

> <Gold.Protein.RotatedAtoms>
  150.7481  134.6058  159.6060 H   0  0  0  0  0  0  0  0  0  0  0  0  # atno 6907 bound_to 6896
  152.3406  134.7136  160.0273 H   0  0  0  0  0  0  0  0  0  0  0  0  # atno 6908 bound_to 6896
  151.7589  133.3296  159.3449 H   0  0  0  0  0  0  0  0  0  0  0  0  # atno 6909 bound_to 6896
  146.2443  140.0515  142.8374 H   0  0  0  0  0  0  0  0  0  0  0  0  # atno 7974 bound_to 7965
  154.6337  140.0600  156.9763 H   0  0  0  0  0  0  0  0  0  0  0  0  # atno 8008 bound_to 7997
  155.1626  140.3284  155.4390 H   0  0  0  0  0  0  0  0  0  0  0  0  # atno 8009 bound_to 7997
  156.2496  140.1928  156.6732 H   0  0  0  0  0  0  0  0  0  0  0  0  # atno 8010 bound_to 7997
  139.5587  144.1924  152.1203 H   0  0  0  0  0  0  0  0  0  0  0  0  # atno 10167 bound_to 10162
  157.6119  130.9225  150.0004 H   0  0  0  0  0  0  0  0  0  0  0  0  # atno 10718 bound_to 10713
  152.9933  135.5521  154.5940 H   0  0  0  0  0  0  0  0  0  0  0  0  # atno 10763 bound_to 10752
  154.5296  135.2812  155.1194 H   0  0  0  0  0  0  0  0  0  0  0  0  # atno 10764 bound_to 10752
  154.2514  135.6398  153.5294 H   0  0  0  0  0  0  0  0  0  0  0  0  # atno 10765 bound_to 10752
  140.9592  134.0960  157.3986 H   0  0  0  0  0  0  0  0  0  0  0  0  # atno 11005 bound_to 11000
  145.0980  140.9327  143.4730 LP  0  0  0  0  0  0  0  0  0  0  0  0  # atno 17320 bound_to 7965
  145.0702  139.3037  143.5836 LP  0  0  0  0  0  0  0  0  0  0  0  0  # atno 17321 bound_to 7965
  140.1433  144.5182  150.6731 LP  0  0  0  0  0  0  0  0  0  0  0  0  # atno 17342 bound_to 10162
  140.6864  143.2352  151.5249 LP  0  0  0  0  0  0  0  0  0  0  0  0  # atno 17343 bound_to 10162
  156.1225  130.3645  149.9864 LP  0  0  0  0  0  0  0  0  0  0  0  0  # atno 17370 bound_to 10713
  156.7941  130.9267  151.3646 LP  0  0  0  0  0  0  0  0  0  0  0  0  # atno 17371 bound_to 10713
  139.8872  135.0088  156.6547 LP  0  0  0  0  0  0  0  0  0  0  0  0  # atno 17394 bound_to 11000
  140.7492  133.8911  155.8335 LP  0  0  0  0  0  0  0  0  0  0  0  0  # atno 17395 bound_to 11000

$$$$
