#       Name:                AV-unprocessed.smi:855
#       Creating user name   scv26
#       Creation time:       Fri Mar 27 01:42:46 2020


#       File generated by GOLD software.
#

@<TRIPOS>MOLECULE
AV-unprocessed.smi:855
    41    42     1
SMALL
NO_CHARGES


@<TRIPOS>ATOM
      1 ****        -6.3981   3.7603   0.9898 C.3            1 S1                 0.0000
      2 ****        -5.3163   3.0480   0.2522 C.2            1 S1                 0.0000
      3 ****        -4.5581   1.9511   0.5490 C.2            1 S1                 0.0000
      4 ****        -3.7146   1.8221  -0.5882 C.2            1 S1                 0.0000
      5 ****        -2.7856   0.8724  -0.7788 N.pl3          1 S1                -1.0000
      6 ****        -1.5357   1.0361  -0.2887 C.2            1 S1                 0.0000
      7 ****        -1.1249   1.9963   0.3671 O.2            1 S1                 0.0000
      8 ****        -0.7066   0.0245  -0.5770 N.am           1 S1                 0.0000
      9 ****         0.6936  -0.0417  -0.1838 C.3            1 S1                 0.0000
     10 ****         1.3497  -1.3157  -0.7344 C.3            1 S1                 0.0000
     11 ****         2.7892  -1.3856  -0.3926 N.4            1 S1                 1.0000
     12 ****         3.0883  -1.6092   1.0354 C.3            1 S1                 0.0000
     13 ****         4.5375  -2.1014   1.0759 C.3            1 S1                 0.0000
     14 ****         4.8225  -2.6520  -0.3272 C.3            1 S1                 0.0000
     15 ****         3.5358  -2.4241  -1.1266 C.3            1 S1                 0.0000
     16 ****        -3.9524   2.7482  -1.5020 N.2            1 S1                 0.0000
     17 ****        -4.9734   3.5431  -0.9675 O.3            1 S1                 0.0000
     18 ****        -7.1611   3.0588   1.3276 H              1 S1                 0.0000
     19 ****        -6.8812   4.5049   0.3568 H              1 S1                 0.0000
     20 ****        -5.9957   4.2704   1.8650 H              1 S1                 0.0000
     21 ****        -4.5969   1.3408   1.4388 H              1 S1                 0.0000
     22 ****        -1.0768  -0.7442  -1.1168 H              1 S1                 0.0000
     23 ****         1.2161   0.8400  -0.5584 H              1 S1                 0.0000
     24 ****         0.7532  -0.0176   0.9051 H              1 S1                 0.0000
     25 ****         0.8349  -2.2044  -0.3658 H              1 S1                 0.0000
     26 ****         1.2513  -1.3235  -1.8210 H              1 S1                 0.0000
     27 ****         2.9430  -0.7066   1.6296 H              1 S1                 0.0000
     28 ****         2.4280  -2.3832   1.4303 H              1 S1                 0.0000
     29 ****         5.2112  -1.2704   1.2894 H              1 S1                 0.0000
     30 ****         4.6859  -2.8516   1.8532 H              1 S1                 0.0000
     31 ****         5.6516  -2.1054  -0.7783 H              1 S1                 0.0000
     32 ****         5.0975  -3.7070  -0.3065 H              1 S1                 0.0000
     33 ****         2.9513  -3.3456  -1.1475 H              1 S1                 0.0000
     34 ****         3.7308  -2.1259  -2.1572 H              1 S1                 0.0000
     35 ****         3.2069  -0.5013  -0.6457 H              1 S1                 0.0000
     36 ****        -3.0182   0.0416  -1.2845 LP             1 S1                 0.0000
     37 ****        -1.7405   2.7541   0.5833 LP             1 S1                 0.0000
     38 ****        -0.1762   2.0171   0.6826 LP             1 S1                 0.0000
     39 ****        -3.4992   2.8574  -2.3867 LP             1 S1                 0.0000
     40 ****        -4.6512   4.4847  -0.8703 LP             1 S1                 0.0000
     41 ****        -5.7680   3.5237  -1.5744 LP             1 S1                 0.0000
@<TRIPOS>BOND
    1    1    2 1     
    2    1   18 1     
    3    1   19 1     
    4    1   20 1     
    5    2   17 1     
    6    2    3 2     
    7    3    4 1     
    8    3   21 1     
    9    4    5 1     
   10    4   16 2     
   11    5    6 1     
   12    6    7 2     
   13    6    8 am    
   14    8    9 1     
   15    8   22 1     
   16    9   10 1     
   17    9   23 1     
   18    9   24 1     
   19   10   11 1     
   20   10   25 1     
   21   10   26 1     
   22   11   15 1     
   23   11   12 1     
   24   11   35 1     
   25   12   13 1     
   26   12   27 1     
   27   12   28 1     
   28   13   14 1     
   29   13   29 1     
   30   13   30 1     
   31   14   15 1     
   32   14   31 1     
   33   14   32 1     
   34   15   33 1     
   35   15   34 1     
   36   16   17 1     
   37    5   36 1     
   38    7   37 1     
   39    7   38 1     
   40   16   39 1     
   41   17   40 1     
   42   17   41 1     
@<TRIPOS>SUBSTRUCTURE
      1 S1             1
@<TRIPOS>SET
LONE_PAIRS      STATIC     ATOMS    <user>   **** ""
6 36 37 38 39 40 41
DONOR_HYDROGENS      STATIC     ATOMS    <user>   **** ""
2 22 35
ATOM$BLUE        STATIC     ATOMS    COLORGROUP SYSTEM
6 36 37 38 39 40 41
ATOM$RED        STATIC     ATOMS    COLORGROUP SYSTEM
2 22 35
