AV-unprocessed.smi:1964|AV-procd|sdf|7931|dock4
  -GOLD-   2272010103D 1   1.00000     0.00000
 Structure written by MMmdl.
 46 48  0  0  0  0  0  0  0  0  1 V2000
  150.9753  144.1783  159.3090 C   0  0  0  0  0  0  0  0  0  0  0  0
  152.1394  143.2063  159.5755 C   0  0  1  0  0  0  0  0  0  0  0  0
  152.5280  143.2178  161.0678 C   0  0  0  0  0  0  0  0  0  0  0  0
  153.7011  142.2702  161.3615 C   0  0  0  0  0  0  0  0  0  0  0  0
  153.3858  140.8413  160.8984 C   0  0  0  0  0  0  0  0  0  0  0  0
  153.0106  140.8152  159.4098 C   0  0  0  0  0  0  0  0  0  0  0  0
  151.8304  141.7625  159.1069 C   0  0  2  0  0  0  0  0  0  0  0  0
  151.5329  141.7516  157.6783 N   0  0  0  0  0  0  0  0  0  0  0  0
  150.3711  142.1160  157.1102 C   0  0  0  0  0  0  0  0  0  0  0  0
  149.3940  142.4796  157.7633 O   0  0  0  0  0  0  0  0  0  0  0  0
  150.2761  142.0836  155.5743 C   0  0  0  0  0  0  0  0  0  0  0  0
  149.7995  140.7988  155.0104 N   0  0  0  0  0  0  0  0  0  0  0  0
  150.6243  139.6527  155.1466 C   0  0  0  0  0  0  0  0  0  0  0  0
  151.7079  139.7159  155.7292 O   0  0  0  0  0  0  0  0  0  0  0  0
  150.0947  138.4230  154.5620 C   0  0  0  0  0  0  0  0  0  0  0  0
  150.9164  137.2605  154.6357 C   0  0  0  0  0  0  0  0  0  0  0  0
  151.5651  136.3048  154.7069 N   0  0  0  0  0  0  0  0  0  0  0  0
  148.8791  138.3990  153.9779 C   0  0  0  0  0  0  0  0  0  0  0  0
  148.0675  139.5103  153.9112 N   0  0  0  0  0  0  0  0  0  0  0  0
  146.8344  139.4962  153.1765 C   0  0  0  0  0  0  0  0  0  0  0  0
  146.2246  138.1782  152.7397 C   0  0  0  0  0  0  0  0  0  0  0  0
  146.8532  139.0932  151.7179 C   0  0  0  0  0  0  0  0  0  0  0  0
  148.5302  140.7576  154.3835 C   0  0  0  0  0  0  0  0  0  0  0  0
  147.8495  141.7789  154.2617 O   0  0  0  0  0  0  0  0  0  0  0  0
  150.0677  143.8572  159.8209 H   0  0  0  0  0  0  0  0  0  0  0  0
  150.7478  144.2562  158.2457 H   0  0  0  0  0  0  0  0  0  0  0  0
  151.2166  145.1819  159.6601 H   0  0  0  0  0  0  0  0  0  0  0  0
  152.9995  143.5679  159.0092 H   0  0  0  0  0  0  0  0  0  0  0  0
  152.7947  144.2292  161.3762 H   0  0  0  0  0  0  0  0  0  0  0  0
  151.6681  142.9283  161.6736 H   0  0  0  0  0  0  0  0  0  0  0  0
  154.5984  142.6296  160.8566 H   0  0  0  0  0  0  0  0  0  0  0  0
  153.9240  142.2740  162.4288 H   0  0  0  0  0  0  0  0  0  0  0  0
  154.2444  140.1935  161.0770 H   0  0  0  0  0  0  0  0  0  0  0  0
  152.5634  140.4368  161.4900 H   0  0  0  0  0  0  0  0  0  0  0  0
  153.8774  141.1029  158.8128 H   0  0  0  0  0  0  0  0  0  0  0  0
  152.7614  139.7943  159.1180 H   0  0  0  0  0  0  0  0  0  0  0  0
  150.9507  141.4102  159.6494 H   0  0  0  0  0  0  0  0  0  0  0  0
  152.2807  141.4599  157.0661 H   0  0  0  0  0  0  0  0  0  0  0  0
  149.6376  142.9101  155.2593 H   0  0  0  0  0  0  0  0  0  0  0  0
  151.2546  142.3451  155.1683 H   0  0  0  0  0  0  0  0  0  0  0  0
  148.5212  137.4714  153.5545 H   0  0  0  0  0  0  0  0  0  0  0  0
  146.1274  140.2803  153.4417 H   0  0  0  0  0  0  0  0  0  0  0  0
  146.7581  137.2597  152.9780 H   0  0  0  0  0  0  0  0  0  0  0  0
  145.1393  138.1015  152.7485 H   0  0  0  0  0  0  0  0  0  0  0  0
  146.1864  139.6250  151.0421 H   0  0  0  0  0  0  0  0  0  0  0  0
  147.8001  138.7775  151.2840 H   0  0  0  0  0  0  0  0  0  0  0  0
  1  2  1  0  0  0  0
  1 25  1  0  0  0  0
  1 26  1  0  0  0  0
  1 27  1  0  0  0  0
  2  7  1  0  0  0  0
  2  3  1  0  0  0  0
  2 28  1  0  0  0  0
  3  4  1  0  0  0  0
  3 29  1  0  0  0  0
  3 30  1  0  0  0  0
  4  5  1  0  0  0  0
  4 31  1  0  0  0  0
  4 32  1  0  0  0  0
  5  6  1  0  0  0  0
  5 33  1  0  0  0  0
  5 34  1  0  0  0  0
  6  7  1  0  0  0  0
  6 35  1  0  0  0  0
  6 36  1  0  0  0  0
  7  8  1  0  0  0  0
  7 37  1  0  0  0  0
  8  9  1  0  0  0  0
  8 38  1  0  0  0  0
  9 10  2  0  0  0  0
  9 11  1  0  0  0  0
 11 12  1  0  0  0  0
 11 39  1  0  0  0  0
 11 40  1  0  0  0  0
 12 23  1  0  0  0  0
 12 13  1  0  0  0  0
 13 14  2  0  0  0  0
 13 15  1  0  0  0  0
 15 16  1  0  0  0  0
 15 18  2  0  0  0  0
 16 17  3  0  0  0  0
 18 19  1  0  0  0  0
 18 41  1  0  0  0  0
 19 20  1  0  0  0  0
 19 23  1  0  0  0  0
 20 22  1  0  0  0  0
 20 21  1  0  0  0  0
 20 42  1  0  0  0  0
 21 22  1  0  0  0  0
 21 43  1  0  0  0  0
 21 44  1  0  0  0  0
 22 45  1  0  0  0  0
 22 46  1  0  0  0  0
 23 24  2  0  0  0  0
M  END
> <s_m_source_file>
AV-unprocessed.smi

> <i_m_source_file_index>
1964

> <i_lp_mmshare_version>
43012

> <i_f3d_flags>
0

> <s_epik_input>
W0NIM11bQ0BASF0xW0NIMl1bQ0gyXVtDSDJdW0NIMl1bQ0BIXTFbTkhdQyg9TylbQ0gyXW4yYyg9TyljKEMjTilbY0hdbihjMj1PKVtDSF0zW0NIMl1bQ0gyXTM=

> <s_epik_cmdline>
J2VwaWtfcHl0aG9uJywgJy1waCcsICc3LjAnLCAnLXRuJywgJzgnLCAnLW1hJywgJzIwMCcsICctbWV0YWxfYmluZGluZycsICctaW1hZScsICc8aW5maWxlLm1hZT4nLCAnLW9tYWUnLCAnPG91dGZpbGUubWFlPic=

> <r_lp_tautomer_probability>
1

> <r_epik_Ionization_Penalty>
1.91372e-08

> <r_epik_Ionization_Penalty_Charging>
9.0283e-11

> <r_epik_Ionization_Penalty_Neutral>
1.90469e-08

> <r_epik_State_Penalty>
-0

> <r_epik_Charging_Adjusted_Penalty>
9.0283e-11

> <i_epik_Tot_Q>
0

> <i_epik_Tot_abs_Q>
0

> <r_epik_Metal_State_Penalty>
-0

> <b_epik_Metal_Only>
0

> <s_lp_Force_Field>
OPLS_2005

> <r_lp_Energy>
35.2183

> <b_lp_Chiralities_Consistent>
1

> <s_lp_Variant>
AV-unprocessed.smi:1964-4

> <Gold.Version>
5.8.1

> <Gold.Id.Protein>
6NUR|6NUR_protein|mol2

> <Gold.PLP.Fitness>
50.2185

> <Gold.PLP.PLP>
-45.6935

> <Gold.PLP.part.hbond>
-1.0000

> <Gold.PLP.part.metal>
0.0000

> <Gold.PLP.part.buried>
-0.6699

> <Gold.PLP.part.nonpolar>
-44.8880

> <Gold.PLP.part.repulsive>
0.6277

> <Gold.PLP.ligand.clash>
0.0000

> <Gold.PLP.ligand.torsion>
0.8340

> <Gold.PLP.Chemscore.Hbond>
1.0000

> <Gold.PLP.Chemscore.CHOScore>
1.0000

> <Gold.PLP.Chemscore.Metal>
0.0000

> <Gold.Chemscore.Hbonds>
donor molecule, donor type, donor heavy atom, donor atom, acceptor molecule, acceptor atom, score
      P1  H 10752 10764       L1    17  1.00
      L1  C    18    41       P1  7948  1.00

> <Gold.PLP.Chemscore.Internal.Correction>
0.1930

> <Gold.Rescore>
     Score         DG    S(hbond)    S(metal)    S(lipo)     H(rot)  DE(clash)    DE(int)     intcor
     14.47     -17.70       1.00        0.00     113.27       1.70       0.28       2.96       ----

> <Gold.Chemscore.Fitness>
14.4683

> <Gold.Chemscore.DG>
-17.7037

> <Gold.Chemscore.ZeroCoef>
-5.4800

> <Gold.Chemscore.Hbond>
0.9980

> <Gold.Chemscore.Metal>
0.0000

> <Gold.Chemscore.Lipo>
113.2668

> <Gold.Chemscore.Internal_Hbond>
0.0000

> <Gold.Chemscore.DEClash>
0.2752

> <Gold.Chemscore.DEInternal>
2.9601

> <Gold.Chemscore.Rot>
1.7038

> <Gold.Chemscore.Internal.Correction>
   9.000000E+99

> <Gold.Chemscore.Hbonds>
donor molecule, donor type, donor heavy atom, donor atom, acceptor molecule, acceptor atom, score
      P1  H 10752 10764       L1    17  0.96

> <Gold.Chemscore.Hbond.Weighted>
-3.3332

> <Gold.Chemscore.Metal.Weighted>
-0.0000

> <Gold.Chemscore.Lipo.Weighted>
-13.2522

> <Gold.Chemscore.Internal_Hbond.Weighted>
0.0000

> <Gold.Chemscore.DEClash.Weighted>
0.2752

> <Gold.Chemscore.DEInternal.Weighted>
2.9601

> <Gold.Chemscore.Rot.Weighted>
4.3618

> <Gold.Chemscore.Internal.Correction.Weighted>
   9.000000E+99

> <Gold.Protein.RotatedTorsions>
[ 6907 6896 6895 6894 ] final   92.37 input  -60.11 | X-H torsion
[ 7974 7965 7964 7962 ] final  -54.60 input  175.53 | X-H torsion
[ 8008 7997 7996 7995 ] final    8.48 input   59.86 | X-H torsion
[ 10167 10162 10161 10158 ] final  -96.40 input  -65.29 | X-H torsion
[ 10718 10713 10712 10709 ] final -108.39 input   66.30 | X-H torsion
[ 10763 10752 10751 10750 ] final  -47.38 input  -60.55 | X-H torsion
[ 11005 11000 10999 10996 ] final  116.36 input  -57.11 | X-H torsion

> <Gold.Protein.ActiveResidues>
 VAL166  LYS551  ARG553  GLY616  TRP617  ASP618  TYR619  PRO620  LYS621  CYS622 
 ASP623  PHE694  ASN695  SER759  ASP760  ASP761  ALA762  ILE779  LEU786  VAL792 
 PHE793  MET794  SER795  GLU796  ALA797  LYS798  CYS799  TRP800  GLU811  SER814 

> <Gold.Protein.RotatedAtoms>
  152.5452  134.1513  159.8519 H   0  0  0  0  0  0  0  0  0  0  0  0  # atno 6907 bound_to 6896
  151.1539  133.4882  159.2602 H   0  0  0  0  0  0  0  0  0  0  0  0  # atno 6908 bound_to 6896
  151.1443  135.0206  159.8694 H   0  0  0  0  0  0  0  0  0  0  0  0  # atno 6909 bound_to 6896
  145.8838  140.8124  142.9826 H   0  0  0  0  0  0  0  0  0  0  0  0  # atno 7974 bound_to 7965
  154.7674  140.2795  155.6165 H   0  0  0  0  0  0  0  0  0  0  0  0  # atno 8008 bound_to 7997
  156.2927  140.2648  156.2395 H   0  0  0  0  0  0  0  0  0  0  0  0  # atno 8009 bound_to 7997
  154.9942  140.0373  157.2322 H   0  0  0  0  0  0  0  0  0  0  0  0  # atno 8010 bound_to 7997
  140.2942  143.3202  152.0314 H   0  0  0  0  0  0  0  0  0  0  0  0  # atno 10167 bound_to 10162
  156.0483  130.5711  150.7955 H   0  0  0  0  0  0  0  0  0  0  0  0  # atno 10718 bound_to 10713
  154.0604  135.6619  153.4811 H   0  0  0  0  0  0  0  0  0  0  0  0  # atno 10763 bound_to 10752
  153.0429  135.5133  154.7664 H   0  0  0  0  0  0  0  0  0  0  0  0  # atno 10764 bound_to 10752
  154.6699  135.3028  154.9723 H   0  0  0  0  0  0  0  0  0  0  0  0  # atno 10765 bound_to 10752
  139.9039  134.9597  156.7185 H   0  0  0  0  0  0  0  0  0  0  0  0  # atno 11005 bound_to 11000
  144.6728  140.1424  143.7436 LP  0  0  0  0  0  0  0  0  0  0  0  0  # atno 17320 bound_to 7965
  145.8992  139.2420  143.1504 LP  0  0  0  0  0  0  0  0  0  0  0  0  # atno 17321 bound_to 7965
  139.4930  144.6503  151.6690 LP  0  0  0  0  0  0  0  0  0  0  0  0  # atno 17342 bound_to 10162
  140.5706  144.0115  150.6215 LP  0  0  0  0  0  0  0  0  0  0  0  0  # atno 17343 bound_to 10162
  157.5383  131.0939  150.9862 LP  0  0  0  0  0  0  0  0  0  0  0  0  # atno 17370 bound_to 10713
  157.0151  130.5652  149.5325 LP  0  0  0  0  0  0  0  0  0  0  0  0  # atno 17371 bound_to 10713
  140.7019  133.9299  155.8029 LP  0  0  0  0  0  0  0  0  0  0  0  0  # atno 17394 bound_to 11000
  141.0365  134.0682  157.3953 LP  0  0  0  0  0  0  0  0  0  0  0  0  # atno 17395 bound_to 11000

$$$$
