AV-unprocessed.smi:220|AV-procd|sdf|1683|dock9
  -GOLD-   2262020123D 1   1.00000     0.00000
 Structure written by MMmdl.
 51 55  0  0  0  0  0  0  0  0  1 V2000
  147.9364  134.0281  153.1296 N   0  0  0  0  0  0  0  0  0  0  0  0
  146.6773  133.7645  152.7727 C   0  0  0  0  0  0  0  0  0  0  0  0
  145.9956  132.9294  153.3652 O   0  0  0  0  0  0  0  0  0  0  0  0
  146.1201  134.5483  151.5632 C   0  0  1  0  0  0  0  0  0  0  0  0
  145.3847  133.6985  150.4896 C   0  0  1  0  0  0  0  0  0  0  0  0
  145.6753  132.1843  150.3451 C   0  0  0  0  0  0  0  0  0  0  0  0
  144.2971  131.5208  150.2613 C   0  0  0  0  0  0  0  0  0  0  0  0
  143.3950  132.4138  151.1128 C   0  0  0  0  0  0  0  0  0  0  0  0
  143.8868  133.8278  150.7911 C   0  0  1  0  0  0  0  0  0  0  0  0
  143.7696  134.8712  151.9054 C   0  0  0  0  0  0  0  0  0  0  0  0
  145.0845  135.5006  151.9729 N   0  0  0  0  0  0  0  0  0  0  0  0
  145.3250  136.5360  152.8274 C   0  0  0  0  0  0  0  0  0  0  0  0
  144.8698  136.4387  154.1054 N   0  0  0  0  0  0  0  0  0  0  0  0
  145.0842  137.4201  154.9849 C   0  0  0  0  0  0  0  0  0  0  0  0
  145.7201  138.5768  154.8024 N   0  0  0  0  0  0  0  0  0  0  0  0
  146.1733  138.6942  153.5224 C   0  0  0  0  0  0  0  0  0  0  0  0
  146.0183  137.7351  152.4787 C   0  0  0  0  0  0  0  0  0  0  0  0
  146.6005  138.2253  151.3144 N   0  0  0  0  0  0  0  0  0  0  0  0
  147.0777  139.3910  151.6508 C   0  0  0  0  0  0  0  0  0  0  0  0
  146.8759  139.7484  152.9631 N   0  0  0  0  0  0  0  0  0  0  0  0
  147.3006  140.9829  153.6059 C   0  0  0  0  0  0  0  0  0  0  0  0
  148.2517  140.7654  154.8001 C   0  0  0  0  0  0  0  0  0  0  0  0
  149.0472  139.4603  154.6225 C   0  0  0  0  0  0  0  0  0  0  0  0
  150.1038  139.6237  153.6987 O   0  0  0  0  0  0  0  0  0  0  0  0
  149.1040  141.9754  155.2093 C   0  0  0  0  0  0  0  0  0  0  0  0
  148.6908  141.8731  156.5881 O   0  0  0  0  0  0  0  0  0  0  0  0
  147.6387  140.9674  156.1926 C   0  0  0  0  0  0  0  0  0  0  0  0
  148.3449  133.5451  153.9166 H   0  0  0  0  0  0  0  0  0  0  0  0
  148.4739  134.7112  152.6156 H   0  0  0  0  0  0  0  0  0  0  0  0
  146.9374  135.0671  151.0640 H   0  0  0  0  0  0  0  0  0  0  0  0
  145.5595  134.1681  149.5200 H   0  0  0  0  0  0  0  0  0  0  0  0
  146.2798  131.9698  149.4634 H   0  0  0  0  0  0  0  0  0  0  0  0
  146.2056  131.7622  151.1963 H   0  0  0  0  0  0  0  0  0  0  0  0
  143.9474  131.5250  149.2279 H   0  0  0  0  0  0  0  0  0  0  0  0
  144.3082  130.4859  150.6047 H   0  0  0  0  0  0  0  0  0  0  0  0
  142.3362  132.2773  150.8924 H   0  0  0  0  0  0  0  0  0  0  0  0
  143.5514  132.1821  152.1674 H   0  0  0  0  0  0  0  0  0  0  0  0
  143.3832  134.1878  149.8924 H   0  0  0  0  0  0  0  0  0  0  0  0
  142.9926  135.5999  151.6703 H   0  0  0  0  0  0  0  0  0  0  0  0
  143.5238  134.4134  152.8647 H   0  0  0  0  0  0  0  0  0  0  0  0
  144.6903  137.2540  155.9767 H   0  0  0  0  0  0  0  0  0  0  0  0
  147.5934  140.0235  150.9436 H   0  0  0  0  0  0  0  0  0  0  0  0
  147.7800  141.6007  152.8454 H   0  0  0  0  0  0  0  0  0  0  0  0
  146.4143  141.5388  153.9135 H   0  0  0  0  0  0  0  0  0  0  0  0
  149.4522  139.1019  155.5689 H   0  0  0  0  0  0  0  0  0  0  0  0
  148.4012  138.6644  154.2506 H   0  0  0  0  0  0  0  0  0  0  0  0
  149.7562  139.5316  152.8247 H   0  0  0  0  0  0  0  0  0  0  0  0
  150.1769  141.8288  155.0793 H   0  0  0  0  0  0  0  0  0  0  0  0
  148.7836  142.9197  154.7670 H   0  0  0  0  0  0  0  0  0  0  0  0
  146.6650  141.4594  156.1812 H   0  0  0  0  0  0  0  0  0  0  0  0
  147.6107  140.0647  156.8040 H   0  0  0  0  0  0  0  0  0  0  0  0
  1  2  1  0  0  0  0
  1 28  1  0  0  0  0
  1 29  1  0  0  0  0
  2  3  2  0  0  0  0
  2  4  1  0  0  0  0
  4 11  1  0  0  0  0
  4  5  1  0  0  0  0
  4 30  1  0  0  0  0
  5  9  1  0  0  0  0
  5  6  1  0  0  0  0
  5 31  1  0  0  0  0
  6  7  1  0  0  0  0
  6 32  1  0  0  0  0
  6 33  1  0  0  0  0
  7  8  1  0  0  0  0
  7 34  1  0  0  0  0
  7 35  1  0  0  0  0
  8  9  1  0  0  0  0
  8 36  1  0  0  0  0
  8 37  1  0  0  0  0
  9 10  1  0  0  0  0
  9 38  1  0  0  0  0
 10 11  1  0  0  0  0
 10 39  1  0  0  0  0
 10 40  1  0  0  0  0
 11 12  1  0  0  0  0
 12 17  1  0  0  0  0
 12 13  2  0  0  0  0
 13 14  1  0  0  0  0
 14 15  2  0  0  0  0
 14 41  1  0  0  0  0
 15 16  1  0  0  0  0
 16 20  1  0  0  0  0
 16 17  2  0  0  0  0
 17 18  1  0  0  0  0
 18 19  2  0  0  0  0
 19 20  1  0  0  0  0
 19 42  1  0  0  0  0
 20 21  1  0  0  0  0
 21 22  1  0  0  0  0
 21 43  1  0  0  0  0
 21 44  1  0  0  0  0
 22 27  1  0  0  0  0
 22 23  1  0  0  0  0
 22 25  1  0  0  0  0
 23 24  1  0  0  0  0
 23 45  1  0  0  0  0
 23 46  1  0  0  0  0
 24 47  1  0  0  0  0
 25 26  1  0  0  0  0
 25 48  1  0  0  0  0
 25 49  1  0  0  0  0
 26 27  1  0  0  0  0
 27 50  1  0  0  0  0
 27 51  1  0  0  0  0
M  END
> <s_m_source_file>
AV-unprocessed.smi

> <i_m_source_file_index>
220

> <i_lp_mmshare_version>
43012

> <i_f3d_flags>
0

> <s_epik_input>
W0NIMl0xW0NIMl1bQ0gyXVtDQEhdKFtDQEhdMTIpW0NIMl1OKFtDQEBIXTJDKD1PKVtOSDJdKWMobltjSF1uMyljKGMzNCluW2NIXW40W0NIMl1DNShbQ0gyXVtPSF0pW0NIMl1PW0NIMl01

> <s_epik_cmdline>
J2VwaWtfcHl0aG9uJywgJy1waCcsICc3LjAnLCAnLXRuJywgJzgnLCAnLW1hJywgJzIwMCcsICctbWV0YWxfYmluZGluZycsICctaW1hZScsICc8aW5maWxlLm1hZT4nLCAnLW9tYWUnLCAnPG91dGZpbGUubWFlPic=

> <r_lp_tautomer_probability>
1

> <r_epik_Ionization_Penalty>
0.00118987

> <r_epik_Ionization_Penalty_Charging>
0

> <r_epik_Ionization_Penalty_Neutral>
0.00118987

> <r_epik_State_Penalty>
0.000654261

> <r_epik_Charging_Adjusted_Penalty>
0.000654261

> <i_epik_Tot_Q>
0

> <i_epik_Tot_abs_Q>
0

> <r_epik_Metal_State_Penalty>
-0

> <b_epik_Metal_Only>
0

> <s_lp_Force_Field>
OPLS_2005

> <r_lp_Energy>
61.4398

> <b_lp_Chiralities_Consistent>
1

> <s_lp_Variant>
AV-unprocessed.smi:220-2

> <Gold.Version>
5.8.1

> <Gold.Id.Protein>
6NUR|6NUR_protein|mol2

> <Gold.PLP.Fitness>
43.3336

> <Gold.PLP.PLP>
-35.3460

> <Gold.PLP.part.hbond>
-3.7322

> <Gold.PLP.part.metal>
0.0000

> <Gold.PLP.part.buried>
2.4436

> <Gold.PLP.part.nonpolar>
-37.7089

> <Gold.PLP.part.repulsive>
1.8248

> <Gold.PLP.ligand.clash>
0.0000

> <Gold.PLP.ligand.torsion>
2.2176

> <Gold.PLP.Chemscore.Hbond>
3.3819

> <Gold.PLP.Chemscore.CHOScore>
0.5702

> <Gold.PLP.Chemscore.Metal>
0.0000

> <Gold.Chemscore.Hbonds>
donor molecule, donor type, donor heavy atom, donor atom, acceptor molecule, acceptor atom, score
      L1  H     1    29       P1  7948  0.95
      L1  H    24    47       P1  7957  1.00
      P1  H  7954  7966       L1    18  0.46
      P1  H  7989  7998       L1    24  0.88
      L1  C    19    42       P1  7957  0.60

> <Gold.PLP.Chemscore.Internal.Correction>
0.5665

> <Gold.Rescore>
     Score         DG    S(hbond)    S(metal)    S(lipo)     H(rot)  DE(clash)    DE(int)     intcor
      6.01     -12.09       1.13        0.00      87.44       2.89       3.88       2.19       ----

> <Gold.Chemscore.Fitness>
6.0145

> <Gold.Chemscore.DG>
-12.0884

> <Gold.Chemscore.ZeroCoef>
-5.4800

> <Gold.Chemscore.Hbond>
1.1281

> <Gold.Chemscore.Metal>
0.0000

> <Gold.Chemscore.Lipo>
87.4446

> <Gold.Chemscore.Internal_Hbond>
0.0000

> <Gold.Chemscore.DEClash>
3.8803

> <Gold.Chemscore.DEInternal>
2.1935

> <Gold.Chemscore.Rot>
2.8869

> <Gold.Chemscore.Internal.Correction>
   9.000000E+99

> <Gold.Chemscore.Hbonds>
donor molecule, donor type, donor heavy atom, donor atom, acceptor molecule, acceptor atom, score
      L1  H     1    29       P1  7948  0.22
      L1  H    24    47       P1  7957  0.96
      P1  H  7954  7966       L1    18  0.04
      P1  H  7989  7998       L1    24  0.34

> <Gold.Chemscore.Hbond.Weighted>
-3.7679

> <Gold.Chemscore.Metal.Weighted>
-0.0000

> <Gold.Chemscore.Lipo.Weighted>
-10.2310

> <Gold.Chemscore.Internal_Hbond.Weighted>
0.0000

> <Gold.Chemscore.DEClash.Weighted>
3.8803

> <Gold.Chemscore.DEInternal.Weighted>
2.1935

> <Gold.Chemscore.Rot.Weighted>
7.3905

> <Gold.Chemscore.Internal.Correction.Weighted>
   9.000000E+99

> <Gold.Protein.RotatedTorsions>
[ 6907 6896 6895 6894 ] final  -19.27 input  -60.11 | X-H torsion
[ 7974 7965 7964 7962 ] final  -88.19 input  175.53 | X-H torsion
[ 8008 7997 7996 7995 ] final  148.41 input   59.86 | X-H torsion
[ 10167 10162 10161 10158 ] final  -60.68 input  -65.29 | X-H torsion
[ 10718 10713 10712 10709 ] final -150.84 input   66.30 | X-H torsion
[ 10763 10752 10751 10750 ] final  160.89 input  -60.55 | X-H torsion
[ 11005 11000 10999 10996 ] final  161.53 input  -57.11 | X-H torsion

> <Gold.Protein.ActiveResidues>
 VAL166  LYS551  ARG553  GLY616  TRP617  ASP618  TYR619  PRO620  LYS621  CYS622 
 ASP623  PHE694  ASN695  SER759  ASP760  ASP761  ALA762  ILE779  LEU786  VAL792 
 PHE793  MET794  SER795  GLU796  ALA797  LYS798  CYS799  TRP800  GLU811  SER814 

> <Gold.Protein.RotatedAtoms>
  151.2656  135.0668  159.9114 H   0  0  0  0  0  0  0  0  0  0  0  0  # atno 6907 bound_to 6896
  152.5359  134.0184  159.7981 H   0  0  0  0  0  0  0  0  0  0  0  0  # atno 6908 bound_to 6896
  151.0414  133.5653  159.2682 H   0  0  0  0  0  0  0  0  0  0  0  0  # atno 6909 bound_to 6896
  145.4564  140.9561  143.1994 H   0  0  0  0  0  0  0  0  0  0  0  0  # atno 7974 bound_to 7965
  156.2792  140.2129  156.5694 H   0  0  0  0  0  0  0  0  0  0  0  0  # atno 8008 bound_to 7997
  154.7148  140.0509  157.0607 H   0  0  0  0  0  0  0  0  0  0  0  0  # atno 8009 bound_to 7997
  155.0557  140.3161  155.4680 H   0  0  0  0  0  0  0  0  0  0  0  0  # atno 8010 bound_to 7997
  140.6055  143.2372  151.5830 H   0  0  0  0  0  0  0  0  0  0  0  0  # atno 10167 bound_to 10162
  156.4513  130.8169  151.2400 H   0  0  0  0  0  0  0  0  0  0  0  0  # atno 10718 bound_to 10713
  154.2544  135.2770  155.2803 H   0  0  0  0  0  0  0  0  0  0  0  0  # atno 10763 bound_to 10752
  154.5437  135.5695  153.6865 H   0  0  0  0  0  0  0  0  0  0  0  0  # atno 10764 bound_to 10752
  152.9974  135.6257  154.2692 H   0  0  0  0  0  0  0  0  0  0  0  0  # atno 10765 bound_to 10752
  140.2167  134.8227  157.3178 H   0  0  0  0  0  0  0  0  0  0  0  0  # atno 11005 bound_to 11000
  144.8029  139.6106  143.7063 LP  0  0  0  0  0  0  0  0  0  0  0  0  # atno 17320 bound_to 7965
  146.2475  139.6130  142.9449 LP  0  0  0  0  0  0  0  0  0  0  0  0  # atno 17321 bound_to 7965
  139.5322  144.2883  152.1173 LP  0  0  0  0  0  0  0  0  0  0  0  0  # atno 17342 bound_to 10162
  140.2072  144.4599  150.6403 LP  0  0  0  0  0  0  0  0  0  0  0  0  # atno 17343 bound_to 10162
  157.7502  131.0137  150.3434 LP  0  0  0  0  0  0  0  0  0  0  0  0  # atno 17370 bound_to 10713
  156.3813  130.3881  149.7100 LP  0  0  0  0  0  0  0  0  0  0  0  0  # atno 17371 bound_to 10713
  140.1893  134.4392  155.7725 LP  0  0  0  0  0  0  0  0  0  0  0  0  # atno 17394 bound_to 11000
  141.2224  133.7019  156.8000 LP  0  0  0  0  0  0  0  0  0  0  0  0  # atno 17395 bound_to 11000

$$$$
