AV-unprocessed.smi:2534|AV-procd|sdf|9974|dock8
  -GOLD-   2272014 23D 1   1.00000     0.00000
 Structure written by MMmdl.
 40 42  0  0  0  0  0  0  0  0  1 V2000
  146.7578  141.6536  155.2262 C   0  0  0  0  0  0  0  0  0  0  0  0
  148.0756  141.2869  155.9229 C   0  0  2  0  0  0  0  0  0  0  0  0
  148.2386  142.0434  157.2524 C   0  0  0  0  0  0  0  0  0  0  0  0
  149.5531  141.6696  157.9598 C   0  0  0  0  0  0  0  0  0  0  0  0
  150.8029  141.8761  157.0732 C   0  0  1  0  0  0  0  0  0  0  0  0
  150.9556  143.2653  156.8398 O   0  0  0  0  0  0  0  0  0  0  0  0
  152.0636  141.3713  157.8239 C   0  0  0  0  0  0  0  0  0  0  0  0
  152.2429  141.9370  159.1558 N   0  0  0  0  0  0  0  0  0  0  0  0
  151.4593  142.9718  159.5584 N   0  0  0  0  0  0  0  0  0  0  0  0
  151.8511  143.2653  160.7961 C   0  0  0  0  0  0  0  0  0  0  0  0
  152.9187  142.4318  161.2280 C   0  0  0  0  0  0  0  0  0  0  0  0
  153.7121  142.3177  162.4468 C   0  0  0  0  0  0  0  0  0  0  0  0
  154.6388  141.4129  162.4925 N   0  0  0  0  0  0  0  0  0  0  0  0
  154.8854  140.5641  161.4076 N   0  0  0  0  0  0  0  0  0  0  0  0
  155.9692  139.6120  161.6476 C   0  0  0  0  0  0  0  0  0  0  0  0
  154.2057  140.5960  160.2195 C   0  0  0  0  0  0  0  0  0  0  0  0
  154.4418  139.8566  159.2640 O   0  0  0  0  0  0  0  0  0  0  0  0
  153.1338  141.6201  160.1635 C   0  0  0  0  0  0  0  0  0  0  0  0
  150.6131  141.1803  155.7024 C   0  0  0  0  0  0  0  0  0  0  0  0
  149.2877  141.5530  155.0136 C   0  0  0  0  0  0  0  0  0  0  0  0
  146.7250  142.7138  154.9727 H   0  0  0  0  0  0  0  0  0  0  0  0
  145.9023  141.4376  155.8668 H   0  0  0  0  0  0  0  0  0  0  0  0
  146.6298  141.0862  154.3040 H   0  0  0  0  0  0  0  0  0  0  0  0
  148.0457  140.2186  156.1425 H   0  0  0  0  0  0  0  0  0  0  0  0
  148.2095  143.1189  157.0727 H   0  0  0  0  0  0  0  0  0  0  0  0
  147.3982  141.8213  157.9109 H   0  0  0  0  0  0  0  0  0  0  0  0
  149.6460  142.2422  158.8835 H   0  0  0  0  0  0  0  0  0  0  0  0
  149.4966  140.6226  158.2610 H   0  0  0  0  0  0  0  0  0  0  0  0
  150.1265  143.6150  156.5503 H   0  0  0  0  0  0  0  0  0  0  0  0
  152.0498  140.2846  157.9074 H   0  0  0  0  0  0  0  0  0  0  0  0
  152.9541  141.6049  157.2383 H   0  0  0  0  0  0  0  0  0  0  0  0
  151.3565  144.0641  161.3288 H   0  0  0  0  0  0  0  0  0  0  0  0
  153.5260  142.9788  163.2929 H   0  0  0  0  0  0  0  0  0  0  0  0
  156.1601  138.9395  160.8105 H   0  0  0  0  0  0  0  0  0  0  0  0
  155.7377  138.9932  162.5153 H   0  0  0  0  0  0  0  0  0  0  0  0
  156.8968  140.1467  161.8552 H   0  0  0  0  0  0  0  0  0  0  0  0
  151.4387  141.4212  155.0321 H   0  0  0  0  0  0  0  0  0  0  0  0
  150.6424  140.0989  155.8428 H   0  0  0  0  0  0  0  0  0  0  0  0
  149.1895  140.9848  154.0880 H   0  0  0  0  0  0  0  0  0  0  0  0
  149.3086  142.6045  154.7239 H   0  0  0  0  0  0  0  0  0  0  0  0
  1  2  1  0  0  0  0
  1 21  1  0  0  0  0
  1 22  1  0  0  0  0
  1 23  1  0  0  0  0
  2 20  1  0  0  0  0
  2  3  1  0  0  0  0
  2 24  1  0  0  0  0
  3  4  1  0  0  0  0
  3 25  1  0  0  0  0
  3 26  1  0  0  0  0
  4  5  1  0  0  0  0
  4 27  1  0  0  0  0
  4 28  1  0  0  0  0
  5  6  1  0  0  0  0
  5  7  1  0  0  0  0
  5 19  1  0  0  0  0
  6 29  1  0  0  0  0
  7  8  1  0  0  0  0
  7 30  1  0  0  0  0
  7 31  1  0  0  0  0
  8 18  1  0  0  0  0
  8  9  1  0  0  0  0
  9 10  2  0  0  0  0
 10 11  1  0  0  0  0
 10 32  1  0  0  0  0
 11 18  2  0  0  0  0
 11 12  1  0  0  0  0
 12 13  2  0  0  0  0
 12 33  1  0  0  0  0
 13 14  1  0  0  0  0
 14 15  1  0  0  0  0
 14 16  1  0  0  0  0
 15 34  1  0  0  0  0
 15 35  1  0  0  0  0
 15 36  1  0  0  0  0
 16 17  2  0  0  0  0
 16 18  1  0  0  0  0
 19 20  1  0  0  0  0
 19 37  1  0  0  0  0
 19 38  1  0  0  0  0
 20 39  1  0  0  0  0
 20 40  1  0  0  0  0
M  END
> <s_m_source_file>
AV-unprocessed.smi

> <i_m_source_file_index>
2534

> <i_lp_mmshare_version>
43012

> <i_f3d_flags>
0

> <s_epik_input>
W0NIMl0xW0NIMl1bQ0BIXShbQ0gzXSlbQ0gyXVtDSDJdW0NAQF0xKFtPSF0pW0NIMl1uKG5bY0hdMiljKGMyMyljKD1PKW4oW0NIM10pbltjSF0z

> <s_epik_cmdline>
J2VwaWtfcHl0aG9uJywgJy1waCcsICc3LjAnLCAnLXRuJywgJzgnLCAnLW1hJywgJzIwMCcsICctbWV0YWxfYmluZGluZycsICctaW1hZScsICc8aW5maWxlLm1hZT4nLCAnLW9tYWUnLCAnPG91dGZpbGUubWFlPic=

> <r_lp_tautomer_probability>
1

> <r_epik_Ionization_Penalty>
4.4666e-07

> <r_epik_Ionization_Penalty_Charging>
3.10141e-10

> <r_epik_Ionization_Penalty_Neutral>
4.46349e-07

> <r_epik_State_Penalty>
-0

> <r_epik_Charging_Adjusted_Penalty>
3.10141e-10

> <i_epik_Tot_Q>
0

> <i_epik_Tot_abs_Q>
0

> <r_epik_Metal_State_Penalty>
-0

> <b_epik_Metal_Only>
0

> <s_lp_Force_Field>
OPLS_2005

> <r_lp_Energy>
31.1347

> <b_lp_Chiralities_Consistent>
1

> <s_lp_Variant>
AV-unprocessed.smi:2534-1

> <Gold.Version>
5.8.1

> <Gold.Id.Protein>
6NUR|6NUR_protein|mol2

> <Gold.PLP.Fitness>
46.6436

> <Gold.PLP.PLP>
-40.8707

> <Gold.PLP.part.hbond>
-3.0000

> <Gold.PLP.part.metal>
0.0000

> <Gold.PLP.part.buried>
-3.4380

> <Gold.PLP.part.nonpolar>
-32.8552

> <Gold.PLP.part.repulsive>
0.0000

> <Gold.PLP.ligand.clash>
0.0000

> <Gold.PLP.ligand.torsion>
0.1022

> <Gold.PLP.Chemscore.Hbond>
1.9913

> <Gold.PLP.Chemscore.CHOScore>
0.0000

> <Gold.PLP.Chemscore.Metal>
0.0000

> <Gold.Chemscore.Hbonds>
donor molecule, donor type, donor heavy atom, donor atom, acceptor molecule, acceptor atom, score
      L1  H     6    29       P1  8028  1.00
      P1  H  7997  8008       L1    17  0.94

> <Gold.PLP.Chemscore.Internal.Correction>
0.0035

> <Gold.Rescore>
     Score         DG    S(hbond)    S(metal)    S(lipo)     H(rot)  DE(clash)    DE(int)     intcor
     14.70     -18.27       1.97        0.00      89.71       1.68       0.62       2.95       ----

> <Gold.Chemscore.Fitness>
14.7037

> <Gold.Chemscore.DG>
-18.2685

> <Gold.Chemscore.ZeroCoef>
-5.4800

> <Gold.Chemscore.Hbond>
1.9709

> <Gold.Chemscore.Metal>
0.0000

> <Gold.Chemscore.Lipo>
89.7065

> <Gold.Chemscore.Internal_Hbond>
0.0000

> <Gold.Chemscore.DEClash>
0.6173

> <Gold.Chemscore.DEInternal>
2.9475

> <Gold.Chemscore.Rot>
1.6758

> <Gold.Chemscore.Internal.Correction>
   9.000000E+99

> <Gold.Chemscore.Hbonds>
donor molecule, donor type, donor heavy atom, donor atom, acceptor molecule, acceptor atom, score
      L1  H     6    29       P1  8028  0.99
      P1  H  7997  8008       L1    17  0.87

> <Gold.Chemscore.Hbond.Weighted>
-6.5828

> <Gold.Chemscore.Metal.Weighted>
-0.0000

> <Gold.Chemscore.Lipo.Weighted>
-10.4957

> <Gold.Chemscore.Internal_Hbond.Weighted>
0.0000

> <Gold.Chemscore.DEClash.Weighted>
0.6173

> <Gold.Chemscore.DEInternal.Weighted>
2.9475

> <Gold.Chemscore.Rot.Weighted>
4.2899

> <Gold.Chemscore.Internal.Correction.Weighted>
   9.000000E+99

> <Gold.Protein.RotatedTorsions>
[ 6907 6896 6895 6894 ] final  -69.94 input  -60.11 | X-H torsion
[ 7974 7965 7964 7962 ] final  122.49 input  175.53 | X-H torsion
[ 8008 7997 7996 7995 ] final -124.82 input   59.86 | X-H torsion
[ 10167 10162 10161 10158 ] final -111.88 input  -65.29 | X-H torsion
[ 10718 10713 10712 10709 ] final  178.31 input   66.30 | X-H torsion
[ 10763 10752 10751 10750 ] final   71.00 input  -60.55 | X-H torsion
[ 11005 11000 10999 10996 ] final   49.24 input  -57.11 | X-H torsion

> <Gold.Protein.ActiveResidues>
 VAL166  LYS551  ARG553  GLY616  TRP617  ASP618  TYR619  PRO620  LYS621  CYS622 
 ASP623  PHE694  ASN695  SER759  ASP760  ASP761  ALA762  ILE779  LEU786  VAL792 
 PHE793  MET794  SER795  GLU796  ALA797  LYS798  CYS799  TRP800  GLU811  SER814 

> <Gold.Protein.RotatedAtoms>
  150.7281  134.5525  159.5801 H   0  0  0  0  0  0  0  0  0  0  0  0  # atno 6907 bound_to 6896
  152.3009  134.7609  160.0367 H   0  0  0  0  0  0  0  0  0  0  0  0  # atno 6908 bound_to 6896
  151.8190  133.3356  159.3615 H   0  0  0  0  0  0  0  0  0  0  0  0  # atno 6909 bound_to 6896
  145.1070  139.3479  143.4783 H   0  0  0  0  0  0  0  0  0  0  0  0  # atno 7974 bound_to 7965
  155.2032  140.0416  157.2921 H   0  0  0  0  0  0  0  0  0  0  0  0  # atno 8008 bound_to 7997
  154.6061  140.2464  155.7701 H   0  0  0  0  0  0  0  0  0  0  0  0  # atno 8009 bound_to 7997
  156.2351  140.2924  156.0299 H   0  0  0  0  0  0  0  0  0  0  0  0  # atno 8010 bound_to 7997
  140.1288  143.4378  152.1641 H   0  0  0  0  0  0  0  0  0  0  0  0  # atno 10167 bound_to 10162
  156.8925  130.9852  151.3047 H   0  0  0  0  0  0  0  0  0  0  0  0  # atno 10718 bound_to 10713
  153.0374  135.5153  154.7527 H   0  0  0  0  0  0  0  0  0  0  0  0  # atno 10763 bound_to 10752
  154.6492  135.2923  155.0010 H   0  0  0  0  0  0  0  0  0  0  0  0  # atno 10764 bound_to 10752
  154.0900  135.6651  153.4903 H   0  0  0  0  0  0  0  0  0  0  0  0  # atno 10765 bound_to 10752
  140.1120  134.4942  155.8669 H   0  0  0  0  0  0  0  0  0  0  0  0  # atno 11005 bound_to 11000
  146.3528  140.0972  142.8609 LP  0  0  0  0  0  0  0  0  0  0  0  0  # atno 17320 bound_to 7965
  145.0890  140.9272  143.4780 LP  0  0  0  0  0  0  0  0  0  0  0  0  # atno 17321 bound_to 7965
  139.5530  144.7352  151.4377 LP  0  0  0  0  0  0  0  0  0  0  0  0  # atno 17342 bound_to 10162
  140.6829  143.8041  150.7146 LP  0  0  0  0  0  0  0  0  0  0  0  0  # atno 17343 bound_to 10162
  157.6075  130.8558  149.8898 LP  0  0  0  0  0  0  0  0  0  0  0  0  # atno 17370 bound_to 10713
  156.0622  130.3698  150.0957 LP  0  0  0  0  0  0  0  0  0  0  0  0  # atno 17371 bound_to 10713
  141.2132  133.6730  156.6723 LP  0  0  0  0  0  0  0  0  0  0  0  0  # atno 17394 bound_to 11000
  140.3078  134.8111  157.4151 LP  0  0  0  0  0  0  0  0  0  0  0  0  # atno 17395 bound_to 11000

$$$$
