AV-unprocessed.smi:689|AV-procd|sdf|3358|dock7
  -GOLD-   22720 0333D 1   1.00000     0.00000
 Structure written by MMmdl.
 33 34  0  0  0  0  0  0  0  0  2 V2000
  153.0512  138.2715  158.0053 C   0  0  0  0  0  0  0  0  0  0  0  0
  152.1416  138.8393  156.9536 C   0  0  0  0  0  0  0  0  0  0  0  0
  152.6630  139.4237  155.8876 N   0  0  0  0  0  0  0  0  0  0  0  0
  151.5783  139.8303  155.1047 O   0  0  0  0  0  0  0  0  0  0  0  0
  150.4329  139.4693  155.7371 C   0  0  0  0  0  0  0  0  0  0  0  0
  149.1542  139.8122  155.0513 C   0  0  0  0  0  0  0  0  0  0  0  0
  150.7172  138.8413  156.9184 C   0  0  0  0  0  0  0  0  0  0  0  0
  149.7593  138.2774  157.9378 C   0  0  0  0  0  0  0  0  0  0  0  0
  149.9963  136.7723  158.0961 C   0  0  0  0  0  0  0  0  0  0  0  0
  150.6656  136.1783  157.2506 O   0  0  0  0  0  0  0  0  0  0  0  0
  149.4146  136.2849  159.2151 N   0  5  0  0  0  0  0  0  0  0  0  0
  147.8763  136.6170  159.5821 S   0  0  0  0  0  0  0  0  0  0  0  0
  147.7469  137.3872  160.8290 O   0  0  0  0  0  0  0  0  0  0  0  0
  147.1065  137.0821  158.4178 O   0  0  0  0  0  0  0  0  0  0  0  0
  147.2480  134.9266  159.9654 C   0  0  0  0  0  0  0  0  0  0  0  0
  147.5427  134.5299  161.3987 C   0  0  0  0  0  0  0  0  0  0  0  0
  146.4755  133.9094  162.2711 C   0  0  0  0  0  0  0  0  0  0  0  0
  146.9546  135.3115  162.5520 C   0  0  0  0  0  0  0  0  0  0  0  0
  152.6651  138.4674  159.0055 H   0  0  0  0  0  0  0  0  0  0  0  0
  154.0514  138.7020  157.9487 H   0  0  0  0  0  0  0  0  0  0  0  0
  153.1472  137.1913  157.8931 H   0  0  0  0  0  0  0  0  0  0  0  0
  148.3660  139.1105  155.3240 H   0  0  0  0  0  0  0  0  0  0  0  0
  149.2720  139.7793  153.9680 H   0  0  0  0  0  0  0  0  0  0  0  0
  148.8259  140.8141  155.3272 H   0  0  0  0  0  0  0  0  0  0  0  0
  149.8564  138.7814  158.9009 H   0  0  0  0  0  0  0  0  0  0  0  0
  148.7247  138.4340  157.6308 H   0  0  0  0  0  0  0  0  0  0  0  0
  146.1738  134.9125  159.7801 H   0  0  0  0  0  0  0  0  0  0  0  0
  147.7197  134.2168  159.2862 H   0  0  0  0  0  0  0  0  0  0  0  0
  148.5591  134.1710  161.5498 H   0  0  0  0  0  0  0  0  0  0  0  0
  145.4777  133.7955  161.8517 H   0  0  0  0  0  0  0  0  0  0  0  0
  146.7840  133.1250  162.9592 H   0  0  0  0  0  0  0  0  0  0  0  0
  147.5845  135.4649  163.4259 H   0  0  0  0  0  0  0  0  0  0  0  0
  146.2742  136.1282  162.3191 H   0  0  0  0  0  0  0  0  0  0  0  0
  1  2  1  0  0  0  0
  1 19  1  0  0  0  0
  1 20  1  0  0  0  0
  1 21  1  0  0  0  0
  2  7  1  0  0  0  0
  2  3  2  0  0  0  0
  3  4  1  0  0  0  0
  4  5  1  0  0  0  0
  5  6  1  0  0  0  0
  5  7  2  0  0  0  0
  6 22  1  0  0  0  0
  6 23  1  0  0  0  0
  6 24  1  0  0  0  0
  7  8  1  0  0  0  0
  8  9  1  0  0  0  0
  8 25  1  0  0  0  0
  8 26  1  0  0  0  0
  9 10  2  0  0  0  0
  9 11  1  0  0  0  0
 11 12  1  0  0  0  0
 12 13  2  0  0  0  0
 12 14  2  0  0  0  0
 12 15  1  0  0  0  0
 15 16  1  0  0  0  0
 15 27  1  0  0  0  0
 15 28  1  0  0  0  0
 16 18  1  0  0  0  0
 16 17  1  0  0  0  0
 16 29  1  0  0  0  0
 17 18  1  0  0  0  0
 17 30  1  0  0  0  0
 17 31  1  0  0  0  0
 18 32  1  0  0  0  0
 18 33  1  0  0  0  0
M  CHG  1  11  -1
M  END
> <s_m_source_file>
AV-unprocessed.smi

> <i_m_source_file_index>
689

> <i_lp_mmshare_version>
43012

> <i_f3d_flags>
0

> <s_epik_input>
W0NIM11jMW5vYyhbQ0gzXSljMVtDSDJdQyg9TylbTkhdUyg9TykoPU8pW0NIMl1bQ0hdMltDSDJdW0NIMl0y

> <s_epik_cmdline>
J2VwaWtfcHl0aG9uJywgJy1waCcsICc3LjAnLCAnLXRuJywgJzgnLCAnLW1hJywgJzIwMCcsICctbWV0YWxfYmluZGluZycsICctaW1hZScsICc8aW5maWxlLm1hZT4nLCAnLW9tYWUnLCAnPG91dGZpbGUubWFlPic=

> <r_epik_Ionization_Penalty>
0.0117783

> <r_epik_Ionization_Penalty_Charging>
0.0117783

> <r_epik_Ionization_Penalty_Neutral>
2.69026e-10

> <r_epik_State_Penalty>
0.00908283

> <r_epik_Charging_Adjusted_Penalty>
0.0208612

> <i_epik_Tot_Q>
-1

> <i_epik_Tot_abs_Q>
1

> <r_epik_Metal_State_Penalty>
0.00890557

> <b_epik_Metal_Only>
0

> <s_lp_Force_Field>
OPLS_2005

> <r_lp_Energy>
1.25467

> <b_lp_Chiralities_Consistent>
1

> <s_lp_Variant>
AV-unprocessed.smi:689-1

> <Gold.Version>
5.8.1

> <Gold.Id.Protein>
6NUR|6NUR_protein|mol2

> <Gold.PLP.Fitness>
41.8001

> <Gold.PLP.PLP>
-27.1687

> <Gold.PLP.part.hbond>
-5.1559

> <Gold.PLP.part.metal>
0.0000

> <Gold.PLP.part.buried>
-4.4302

> <Gold.PLP.part.nonpolar>
-17.5832

> <Gold.PLP.part.repulsive>
0.0197

> <Gold.PLP.ligand.clash>
0.0000

> <Gold.PLP.ligand.torsion>
1.9984

> <Gold.PLP.Chemscore.Hbond>
5.6880

> <Gold.PLP.Chemscore.CHOScore>
0.0000

> <Gold.PLP.Chemscore.Metal>
0.0000

> <Gold.Chemscore.Hbonds>
donor molecule, donor type, donor heavy atom, donor atom, acceptor molecule, acceptor atom, score
      P1  H  6896  6907       L1    11  1.45
      P1  H  6931  6943       L1    13  0.75
      P1  H  6934  6947       L1    13  0.85
      P1  H  7989  7998       L1     4  1.00
      P1  H  7997  8009       L1     3  1.00

> <Gold.PLP.Chemscore.Internal.Correction>
1.5643

> <Gold.Rescore>
     Score         DG    S(hbond)    S(metal)    S(lipo)     H(rot)  DE(clash)    DE(int)     intcor
     17.72     -21.97       4.23        0.00      55.22       1.61       0.01       4.25       ----

> <Gold.Chemscore.Fitness>
17.7189

> <Gold.Chemscore.DG>
-21.9743

> <Gold.Chemscore.ZeroCoef>
-5.4800

> <Gold.Chemscore.Hbond>
4.2348

> <Gold.Chemscore.Metal>
0.0000

> <Gold.Chemscore.Lipo>
55.2207

> <Gold.Chemscore.Internal_Hbond>
0.0000

> <Gold.Chemscore.DEClash>
0.0103

> <Gold.Chemscore.DEInternal>
4.2451

> <Gold.Chemscore.Rot>
1.6058

> <Gold.Chemscore.Internal.Correction>
   9.000000E+99

> <Gold.Chemscore.Hbonds>
donor molecule, donor type, donor heavy atom, donor atom, acceptor molecule, acceptor atom, score
      P1  H  6896  6907       L1    11  0.16
      P1  H  6931  6943       L1    13  0.76
      P1  H  6934  6947       L1    13  0.85
      P1  H  7989  7998       L1     4  0.97
      P1  H  7997  8009       L1     3  0.74

> <Gold.Chemscore.Hbond.Weighted>
-14.1443

> <Gold.Chemscore.Metal.Weighted>
-0.0000

> <Gold.Chemscore.Lipo.Weighted>
-6.4608

> <Gold.Chemscore.Internal_Hbond.Weighted>
0.0000

> <Gold.Chemscore.DEClash.Weighted>
0.0103

> <Gold.Chemscore.DEInternal.Weighted>
4.2451

> <Gold.Chemscore.Rot.Weighted>
4.1108

> <Gold.Chemscore.Internal.Correction.Weighted>
   9.000000E+99

> <Gold.Protein.RotatedTorsions>
[ 6907 6896 6895 6894 ] final  -68.27 input  -60.11 | X-H torsion
[ 7974 7965 7964 7962 ] final  -20.08 input  175.53 | X-H torsion
[ 8008 7997 7996 7995 ] final -160.79 input   59.86 | X-H torsion
[ 10167 10162 10161 10158 ] final  108.79 input  -65.29 | X-H torsion
[ 10718 10713 10712 10709 ] final  152.18 input   66.30 | X-H torsion
[ 10763 10752 10751 10750 ] final  -33.81 input  -60.55 | X-H torsion
[ 11005 11000 10999 10996 ] final  161.54 input  -57.11 | X-H torsion

> <Gold.Protein.ActiveResidues>
 VAL166  LYS551  ARG553  GLY616  TRP617  ASP618  TYR619  PRO620  LYS621  CYS622 
 ASP623  PHE694  ASN695  SER759  ASP760  ASP761  ALA762  ILE779  LEU786  VAL792 
 PHE793  MET794  SER795  GLU796  ALA797  LYS798  CYS799  TRP800  GLU811  SER814 

> <Gold.Protein.RotatedAtoms>
  150.7365  134.5763  159.5915 H   0  0  0  0  0  0  0  0  0  0  0  0  # atno 6907 bound_to 6896
  152.3189  134.7402  160.0327 H   0  0  0  0  0  0  0  0  0  0  0  0  # atno 6908 bound_to 6896
  151.7925  133.3325  159.3540 H   0  0  0  0  0  0  0  0  0  0  0  0  # atno 6909 bound_to 6896
  146.1807  140.4152  142.8495 H   0  0  0  0  0  0  0  0  0  0  0  0  # atno 7974 bound_to 7965
  155.7826  140.0867  157.2051 H   0  0  0  0  0  0  0  0  0  0  0  0  # atno 8008 bound_to 7997
  154.3989  140.1505  156.3127 H   0  0  0  0  0  0  0  0  0  0  0  0  # atno 8009 bound_to 7997
  155.8638  140.3429  155.5777 H   0  0  0  0  0  0  0  0  0  0  0  0  # atno 8010 bound_to 7997
  139.6818  144.7117  151.1502 H   0  0  0  0  0  0  0  0  0  0  0  0  # atno 10167 bound_to 10162
  157.2611  131.0798  151.1665 H   0  0  0  0  0  0  0  0  0  0  0  0  # atno 10718 bound_to 10713
  153.8364  135.6861  153.4808 H   0  0  0  0  0  0  0  0  0  0  0  0  # atno 10763 bound_to 10752
  153.1480  135.4630  154.9593 H   0  0  0  0  0  0  0  0  0  0  0  0  # atno 10764 bound_to 10752
  154.7864  135.3286  154.7822 H   0  0  0  0  0  0  0  0  0  0  0  0  # atno 10765 bound_to 10752
  140.2168  134.8226  157.3179 H   0  0  0  0  0  0  0  0  0  0  0  0  # atno 11005 bound_to 11000
  144.8310  140.6707  143.6291 LP  0  0  0  0  0  0  0  0  0  0  0  0  # atno 17320 bound_to 7965
  145.4084  139.1584  143.4139 LP  0  0  0  0  0  0  0  0  0  0  0  0  # atno 17321 bound_to 7965
  140.7655  143.5688  150.9018 LP  0  0  0  0  0  0  0  0  0  0  0  0  # atno 17342 bound_to 10162
  139.9360  143.6437  152.3065 LP  0  0  0  0  0  0  0  0  0  0  0  0  # atno 17343 bound_to 10162
  157.3174  130.6920  149.6249 LP  0  0  0  0  0  0  0  0  0  0  0  0  # atno 17370 bound_to 10713
  155.9664  130.4345  150.5054 LP  0  0  0  0  0  0  0  0  0  0  0  0  # atno 17371 bound_to 10713
  140.1892  134.4393  155.7726 LP  0  0  0  0  0  0  0  0  0  0  0  0  # atno 17394 bound_to 11000
  141.2224  133.7019  156.7998 LP  0  0  0  0  0  0  0  0  0  0  0  0  # atno 17395 bound_to 11000

$$$$
