#       Name:                AV-unprocessed.smi:2141
#       Creating user name   scv26
#       Creation time:       Fri Mar 27 11:48:26 2020


#       File generated by GOLD software.
#

@<TRIPOS>MOLECULE
AV-unprocessed.smi:2141
    48    49     1
SMALL
NO_CHARGES


@<TRIPOS>ATOM
      1 ****        -2.6837   0.8929  -2.2352 C.3            1 S1                 0.0000
      2 ****        -3.3164   0.9225  -3.9632 S.o2           1 S1                 0.0000
      3 ****        -4.4358  -0.0254  -4.0714 O.2            1 S1                 0.0000
      4 ****        -3.4912   2.3265  -4.3641 O.2            1 S1                 0.0000
      5 ****        -1.9995   0.2878  -4.8829 N.pl3          1 S1                 0.0000
      6 ****        -1.5809  -1.1111  -4.7392 C.3            1 S1                 0.0000
      7 ****        -0.0692  -1.2450  -4.4629 C.3            1 S1                 0.0000
      8 ****         0.3861  -0.4945  -3.2088 C.2            1 S1                 0.0000
      9 ****         0.7418   0.6799  -3.3023 O.2            1 S1                 0.0000
     10 ****         0.3497  -1.1969  -2.0621 N.am           1 S1                 0.0000
     11 ****         0.6126  -0.7378  -0.7446 C.ar           1 S1                 0.0000
     12 ****         1.4735   0.3397  -0.4340 C.ar           1 S1                 0.0000
     13 ****         1.6546   0.6995   0.9152 C.ar           1 S1                 0.0000
     14 ****         0.9795  -0.0287   1.9232 C.ar           1 S1                 0.0000
     15 ****         1.1396   0.3229   3.2806 N.3            1 S1                 0.0000
     16 ****         2.5180   0.4054   3.7566 C.3            1 S1                 0.0000
     17 ****         2.5693   1.0918   5.1328 C.3            1 S1                 0.0000
     18 ****         1.7069   0.4166   6.0426 O.3            1 S1                 0.0000
     19 ****         0.3510   0.4491   5.6102 C.3            1 S1                 0.0000
     20 ****         0.2236  -0.2669   4.2551 C.3            1 S1                 0.0000
     21 ****         0.1646  -1.0690   1.6206 N.ar           1 S1                 0.0000
     22 ****        -0.0029  -1.4132   0.3272 C.ar           1 S1                 0.0000
     23 ****        -3.4411   1.3025  -1.5675 H              1 S1                 0.0000
     24 ****        -1.7796   1.4974  -2.1648 H              1 S1                 0.0000
     25 ****        -2.4626  -0.1316  -1.9388 H              1 S1                 0.0000
     26 ****        -1.2451   0.9540  -5.0494 H              1 S1                 0.0000
     27 ****        -2.1512  -1.5846  -3.9392 H              1 S1                 0.0000
     28 ****        -1.8369  -1.6430  -5.6555 H              1 S1                 0.0000
     29 ****         0.1954  -2.2993  -4.3707 H              1 S1                 0.0000
     30 ****         0.4944  -0.8664  -5.3168 H              1 S1                 0.0000
     31 ****        -0.0226  -2.1332  -2.1293 H              1 S1                 0.0000
     32 ****         2.0007   0.8902  -1.1978 H              1 S1                 0.0000
     33 ****         2.2944   1.5347   1.1581 H              1 S1                 0.0000
     34 ****         2.9253  -0.6039   3.8285 H              1 S1                 0.0000
     35 ****         3.1531   0.9540   3.0624 H              1 S1                 0.0000
     36 ****         3.5860   1.0690   5.5252 H              1 S1                 0.0000
     37 ****         2.2821   2.1416   5.0544 H              1 S1                 0.0000
     38 ****        -0.2725  -0.0443   6.3558 H              1 S1                 0.0000
     39 ****         0.0048   1.4815   5.5386 H              1 S1                 0.0000
     40 ****        -0.8053  -0.1899   3.9012 H              1 S1                 0.0000
     41 ****         0.4517  -1.3274   4.3702 H              1 S1                 0.0000
     42 ****        -0.6618  -2.2494   0.1431 H              1 S1                 0.0000
     43 ****         0.7318   1.1361  -4.1922 LP             1 S1                 0.0000
     44 ****         1.0408   1.1781  -2.4884 LP             1 S1                 0.0000
     45 ****         0.8168   1.2681   3.2318 LP             1 S1                 0.0000
     46 ****         1.7717   0.8578   6.9377 LP             1 S1                 0.0000
     47 ****         1.9994  -0.5366   6.1188 LP             1 S1                 0.0000
     48 ****        -0.3051  -1.5734   2.3451 LP             1 S1                 0.0000
@<TRIPOS>BOND
    1    1    2 1     
    2    1   23 1     
    3    1   24 1     
    4    1   25 1     
    5    2    3 2     
    6    2    4 2     
    7    2    5 1     
    8    5    6 1     
    9    5   26 1     
   10    6    7 1     
   11    6   27 1     
   12    6   28 1     
   13    7    8 1     
   14    7   29 1     
   15    7   30 1     
   16    8    9 2     
   17    8   10 am    
   18   10   11 1     
   19   10   31 1     
   20   11   22 ar    
   21   11   12 ar    
   22   12   13 ar    
   23   12   32 1     
   24   13   14 ar    
   25   13   33 1     
   26   14   15 1     
   27   14   21 ar    
   28   15   20 1     
   29   15   16 1     
   30   16   17 1     
   31   16   34 1     
   32   16   35 1     
   33   17   18 1     
   34   17   36 1     
   35   17   37 1     
   36   18   19 1     
   37   19   20 1     
   38   19   38 1     
   39   19   39 1     
   40   20   40 1     
   41   20   41 1     
   42   21   22 ar    
   43   22   42 1     
   44    9   43 1     
   45    9   44 1     
   46   15   45 1     
   47   18   46 1     
   48   18   47 1     
   49   21   48 1     
@<TRIPOS>SUBSTRUCTURE
      1 S1             1
@<TRIPOS>SET
LONE_PAIRS      STATIC     ATOMS    <user>   **** ""
8 3 4 43 44 45 46 47 48
DONOR_HYDROGENS      STATIC     ATOMS    <user>   **** ""
2 26 31
ATOM$BLUE        STATIC     ATOMS    COLORGROUP SYSTEM
8 3 4 43 44 45 46 47 48
ATOM$RED        STATIC     ATOMS    COLORGROUP SYSTEM
2 26 31
