AV-unprocessed.smi:2344|AV-procd|sdf|9359|dock8
  -GOLD-   2272012583D 1   1.00000     0.00000
 Structure written by MMmdl.
 35 36  0  0  0  0  0  0  0  0  1 V2000
  153.2656  143.3213  162.3100 C   0  0  0  0  0  0  0  0  0  0  0  0
  152.4256  143.2667  161.0513 C   0  0  0  0  0  0  0  0  0  0  0  0
  151.3634  144.1682  160.8518 C   0  0  0  0  0  0  0  0  0  0  0  0
  150.6088  144.0764  159.6665 C   0  0  0  0  0  0  0  0  0  0  0  0
  150.9320  143.0872  158.7105 C   0  0  0  0  0  0  0  0  0  0  0  0
  150.1109  143.0815  157.5515 N   0  0  0  0  0  0  0  0  0  0  0  0
  150.0663  142.1659  156.5678 C   0  0  0  0  0  0  0  0  0  0  0  0
  150.7493  141.1427  156.5134 O   0  0  0  0  0  0  0  0  0  0  0  0
  149.1690  142.5044  155.6308 N   0  0  0  0  0  0  0  0  0  0  0  0
  148.8741  141.7191  154.4376 C   0  0  2  0  0  0  0  0  0  0  0  0
  147.4623  141.9621  153.9801 C   0  0  0  0  0  0  0  0  0  0  0  0
  146.7300  140.8509  153.9593 C   0  0  0  0  0  0  0  0  0  0  0  0
  147.4919  139.6376  154.4237 C   0  0  1  0  0  0  0  0  0  0  0  0
  147.4535  138.5007  153.3894 C   0  0  0  0  0  0  0  0  0  0  0  0
  147.9033  138.9673  152.1351 O   0  0  0  0  0  0  0  0  0  0  0  0
  148.9148  140.1906  154.6991 C   0  0  0  0  0  0  0  0  0  0  0  0
  151.9569  142.2221  158.9125 N   0  0  0  0  0  0  0  0  0  0  0  0
  152.6795  142.3104  160.0488 C   0  0  0  0  0  0  0  0  0  0  0  0
  149.5527  141.9933  153.6278 H   0  0  0  0  0  0  0  0  0  0  0  0
  147.0350  139.3034  155.3562 H   0  0  0  0  0  0  0  0  0  0  0  0
  153.4462  144.3547  162.6075 H   0  0  0  0  0  0  0  0  0  0  0  0
  154.2315  142.8393  162.1562 H   0  0  0  0  0  0  0  0  0  0  0  0
  152.7529  142.8120  163.1262 H   0  0  0  0  0  0  0  0  0  0  0  0
  151.1282  144.9182  161.5927 H   0  0  0  0  0  0  0  0  0  0  0  0
  149.7905  144.7615  159.4976 H   0  0  0  0  0  0  0  0  0  0  0  0
  149.4862  143.8685  157.4593 H   0  0  0  0  0  0  0  0  0  0  0  0
  148.6493  143.3612  155.7525 H   0  0  0  0  0  0  0  0  0  0  0  0
  147.1113  142.9424  153.6925 H   0  0  0  0  0  0  0  0  0  0  0  0
  145.6928  140.7983  153.6624 H   0  0  0  0  0  0  0  0  0  0  0  0
  148.0991  137.6796  153.7026 H   0  0  0  0  0  0  0  0  0  0  0  0
  146.4448  138.0987  153.2866 H   0  0  0  0  0  0  0  0  0  0  0  0
  148.5100  138.3362  151.7794 H   0  0  0  0  0  0  0  0  0  0  0  0
  149.6511  139.7281  154.0405 H   0  0  0  0  0  0  0  0  0  0  0  0
  149.2226  139.9555  155.7190 H   0  0  0  0  0  0  0  0  0  0  0  0
  153.4820  141.5958  160.1586 H   0  0  0  0  0  0  0  0  0  0  0  0
  1  2  1  0  0  0  0
  1 21  1  0  0  0  0
  1 22  1  0  0  0  0
  1 23  1  0  0  0  0
  2 18  1  0  0  0  0
  2  3  2  0  0  0  0
  3  4  1  0  0  0  0
  3 24  1  0  0  0  0
  4  5  2  0  0  0  0
  4 25  1  0  0  0  0
  5  6  1  0  0  0  0
  5 17  1  0  0  0  0
  6  7  1  0  0  0  0
  6 26  1  0  0  0  0
  7  8  2  0  0  0  0
  7  9  1  0  0  0  0
  9 10  1  0  0  0  0
  9 27  1  0  0  0  0
 10 19  1  0  0  0  0
 10 16  1  0  0  0  0
 10 11  1  0  0  0  0
 11 12  2  0  0  0  0
 11 28  1  0  0  0  0
 12 13  1  0  0  0  0
 12 29  1  0  0  0  0
 13 20  1  0  0  0  0
 13 14  1  0  0  0  0
 13 16  1  0  0  0  0
 14 15  1  0  0  0  0
 14 30  1  0  0  0  0
 14 31  1  0  0  0  0
 15 32  1  0  0  0  0
 16 33  1  0  0  0  0
 16 34  1  0  0  0  0
 17 18  2  0  0  0  0
 18 35  1  0  0  0  0
M  END
> <s_m_source_file>
AV-unprocessed.smi

> <i_m_source_file_index>
2344

> <i_lp_mmshare_version>
43012

> <i_f3d_flags>
0

> <s_epik_input>
W0NIM11jMVtjSF1bY0hdYyhuW2NIXTEpW05IXUMoPU8pW05IXVtDQEBIXTJbQ0hdPVtDSF1bQ0BASF0oW0NIMl0yKVtDSDJdW09IXQ==

> <s_epik_cmdline>
J2VwaWtfcHl0aG9uJywgJy1waCcsICc3LjAnLCAnLXRuJywgJzgnLCAnLW1hJywgJzIwMCcsICctbWV0YWxfYmluZGluZycsICctaW1hZScsICc8aW5maWxlLm1hZT4nLCAnLW9tYWUnLCAnPG91dGZpbGUubWFlPic=

> <r_lp_tautomer_probability>
1

> <r_epik_Ionization_Penalty>
5.7643e-05

> <r_epik_Ionization_Penalty_Charging>
0

> <r_epik_Ionization_Penalty_Neutral>
5.7643e-05

> <r_epik_State_Penalty>
-0

> <r_epik_Charging_Adjusted_Penalty>
0

> <i_epik_Tot_Q>
0

> <i_epik_Tot_abs_Q>
0

> <r_epik_Metal_State_Penalty>
-0

> <b_epik_Metal_Only>
0

> <s_lp_Force_Field>
OPLS_2005

> <r_lp_Energy>
17.7036

> <b_lp_Chiralities_Consistent>
1

> <s_lp_Variant>
AV-unprocessed.smi:2344-3

> <Gold.Version>
5.8.1

> <Gold.Id.Protein>
6NUR|6NUR_protein|mol2

> <Gold.PLP.Fitness>
45.7275

> <Gold.PLP.PLP>
-37.7863

> <Gold.PLP.part.hbond>
-4.0000

> <Gold.PLP.part.metal>
0.0000

> <Gold.PLP.part.buried>
-5.3608

> <Gold.PLP.part.nonpolar>
-27.5633

> <Gold.PLP.part.repulsive>
0.2158

> <Gold.PLP.ligand.clash>
0.0000

> <Gold.PLP.ligand.torsion>
0.3800

> <Gold.PLP.Chemscore.Hbond>
2.8960

> <Gold.PLP.Chemscore.CHOScore>
0.0000

> <Gold.PLP.Chemscore.Metal>
0.0000

> <Gold.Chemscore.Hbonds>
donor molecule, donor type, donor heavy atom, donor atom, acceptor molecule, acceptor atom, score
      L1  H     6    26       P1  8028  0.49
      L1  H     9    27       P1  8028  0.46
      L1  H    15    32       P1  7948  0.69

> <Gold.PLP.Chemscore.Internal.Correction>
0.0133

> <Gold.Rescore>
     Score         DG    S(hbond)    S(metal)    S(lipo)     H(rot)  DE(clash)    DE(int)     intcor
     16.70     -20.28       2.68        0.00      89.75       1.82       1.07       2.51       ----

> <Gold.Chemscore.Fitness>
16.6968

> <Gold.Chemscore.DG>
-20.2765

> <Gold.Chemscore.ZeroCoef>
-5.4800

> <Gold.Chemscore.Hbond>
2.6799

> <Gold.Chemscore.Metal>
0.0000

> <Gold.Chemscore.Lipo>
89.7503

> <Gold.Chemscore.Internal_Hbond>
0.0000

> <Gold.Chemscore.DEClash>
1.0727

> <Gold.Chemscore.DEInternal>
2.5070

> <Gold.Chemscore.Rot>
1.8184

> <Gold.Chemscore.Internal.Correction>
   9.000000E+99

> <Gold.Chemscore.Hbonds>
donor molecule, donor type, donor heavy atom, donor atom, acceptor molecule, acceptor atom, score
      L1  H     6    26       P1  8028  0.19
      L1  H     9    27       P1  8028  0.47
      L1  H    15    32       P1  7948  0.66

> <Gold.Chemscore.Hbond.Weighted>
-8.9507

> <Gold.Chemscore.Metal.Weighted>
-0.0000

> <Gold.Chemscore.Lipo.Weighted>
-10.5008

> <Gold.Chemscore.Internal_Hbond.Weighted>
0.0000

> <Gold.Chemscore.DEClash.Weighted>
1.0727

> <Gold.Chemscore.DEInternal.Weighted>
2.5070

> <Gold.Chemscore.Rot.Weighted>
4.6551

> <Gold.Chemscore.Internal.Correction.Weighted>
   9.000000E+99

> <Gold.Protein.RotatedTorsions>
[ 6907 6896 6895 6894 ] final  -95.05 input  -60.11 | X-H torsion
[ 7974 7965 7964 7962 ] final  -81.49 input  175.53 | X-H torsion
[ 8008 7997 7996 7995 ] final   76.67 input   59.86 | X-H torsion
[ 10167 10162 10161 10158 ] final  -62.27 input  -65.29 | X-H torsion
[ 10718 10713 10712 10709 ] final  143.86 input   66.30 | X-H torsion
[ 10763 10752 10751 10750 ] final  -87.44 input  -60.55 | X-H torsion
[ 11005 11000 10999 10996 ] final   24.36 input  -57.11 | X-H torsion

> <Gold.Protein.ActiveResidues>
 VAL166  LYS551  ARG553  GLY616  TRP617  ASP618  TYR619  PRO620  LYS621  CYS622 
 ASP623  PHE694  ASN695  SER759  ASP760  ASP761  ALA762  ILE779  LEU786  VAL792 
 PHE793  MET794  SER795  GLU796  ALA797  LYS798  CYS799  TRP800  GLU811  SER814 

> <Gold.Protein.RotatedAtoms>
  150.6955  134.1717  159.4214 H   0  0  0  0  0  0  0  0  0  0  0  0  # atno 6907 bound_to 6896
  151.9695  135.0081  160.0561 H   0  0  0  0  0  0  0  0  0  0  0  0  # atno 6908 bound_to 6896
  152.1854  133.4701  159.5017 H   0  0  0  0  0  0  0  0  0  0  0  0  # atno 6909 bound_to 6896
  145.5459  140.9503  143.1525 H   0  0  0  0  0  0  0  0  0  0  0  0  # atno 7974 bound_to 7965
  155.8306  140.3466  155.5570 H   0  0  0  0  0  0  0  0  0  0  0  0  # atno 8008 bound_to 7997
  155.8246  140.0918  157.1849 H   0  0  0  0  0  0  0  0  0  0  0  0  # atno 8009 bound_to 7997
  154.4004  140.1423  156.3528 H   0  0  0  0  0  0  0  0  0  0  0  0  # atno 8010 bound_to 7997
  140.5950  143.2349  151.6055 H   0  0  0  0  0  0  0  0  0  0  0  0  # atno 10167 bound_to 10162
  157.3640  131.0969  151.0889 H   0  0  0  0  0  0  0  0  0  0  0  0  # atno 10718 bound_to 10713
  154.6337  135.5413  153.7709 H   0  0  0  0  0  0  0  0  0  0  0  0  # atno 10763 bound_to 10752
  153.0297  135.6442  154.1263 H   0  0  0  0  0  0  0  0  0  0  0  0  # atno 10764 bound_to 10752
  154.1192  135.2921  155.3192 H   0  0  0  0  0  0  0  0  0  0  0  0  # atno 10765 bound_to 10752
  140.3596  134.2140  155.7673 H   0  0  0  0  0  0  0  0  0  0  0  0  # atno 11005 bound_to 11000
  144.7553  139.7089  143.7256 LP  0  0  0  0  0  0  0  0  0  0  0  0  # atno 17320 bound_to 7965
  146.1949  139.5210  142.9781 LP  0  0  0  0  0  0  0  0  0  0  0  0  # atno 17321 bound_to 7965
  139.5252  144.3080  152.1017 LP  0  0  0  0  0  0  0  0  0  0  0  0  # atno 17342 bound_to 10162
  140.2251  144.4426  150.6324 LP  0  0  0  0  0  0  0  0  0  0  0  0  # atno 17343 bound_to 10162
  157.2018  130.6398  149.5741 LP  0  0  0  0  0  0  0  0  0  0  0  0  # atno 17370 bound_to 10713
  155.9743  130.4688  150.6374 LP  0  0  0  0  0  0  0  0  0  0  0  0  # atno 17371 bound_to 10713
  141.1988  133.8027  157.0565 LP  0  0  0  0  0  0  0  0  0  0  0  0  # atno 17394 bound_to 11000
  140.0637  134.9740  157.1350 LP  0  0  0  0  0  0  0  0  0  0  0  0  # atno 17395 bound_to 11000

$$$$
