AV-unprocessed.smi:3187|AV-procd|sdf|12177|dock10
  -GOLD-   2272018 13D 1   1.00000     0.00000
 Structure written by MMmdl.
 41 42  0  0  0  0  0  0  0  0  2 V2000
  153.7629  140.6463  160.3242 C   0  0  0  0  0  0  0  0  0  0  0  0
  153.0316  141.9681  160.4920 C   0  0  0  0  0  0  0  0  0  0  0  0
  153.0263  142.5799  161.6919 C   0  0  0  0  0  0  0  0  0  0  0  0
  152.3980  143.9280  161.9593 C   0  0  0  0  0  0  0  0  0  0  0  0
  152.2189  144.7184  160.6610 C   0  0  0  0  0  0  0  0  0  0  0  0
  151.5370  143.8693  159.5757 C   0  0  1  0  0  0  0  0  0  0  0  0
  151.2903  144.7388  158.3273 C   0  0  0  0  0  0  0  0  0  0  0  0
  152.3376  142.5699  159.2522 C   0  0  2  0  0  0  0  0  0  0  0  0
  151.4274  141.5492  158.5183 C   0  0  0  0  0  0  0  0  0  0  0  0
  151.2311  141.8765  157.0909 N   0  3  0  0  0  0  0  0  0  0  0  0
  149.8447  141.7044  156.6166 C   0  0  0  0  0  0  0  0  0  0  0  0
  149.8183  141.2277  155.1583 C   0  0  0  0  0  0  0  0  0  0  0  0
  148.4849  141.3082  154.5975 N   0  0  0  0  0  0  0  0  0  0  0  0
  147.9858  140.5924  153.5172 C   0  0  0  0  0  0  0  0  0  0  0  0
  146.6791  140.9925  153.3506 C   0  0  0  0  0  0  0  0  0  0  0  0
  146.3551  141.9461  154.3129 N   0  0  0  0  0  0  0  0  0  0  0  0
  147.4734  142.0827  155.0134 C   0  0  0  0  0  0  0  0  0  0  0  0
  154.4466  140.6928  159.4762 H   0  0  0  0  0  0  0  0  0  0  0  0
  153.0593  139.8284  160.1710 H   0  0  0  0  0  0  0  0  0  0  0  0
  154.3523  140.4046  161.2096 H   0  0  0  0  0  0  0  0  0  0  0  0
  153.5067  142.1108  162.5386 H   0  0  0  0  0  0  0  0  0  0  0  0
  151.4402  143.7754  162.4575 H   0  0  0  0  0  0  0  0  0  0  0  0
  153.0323  144.4885  162.6468 H   0  0  0  0  0  0  0  0  0  0  0  0
  151.6379  145.6189  160.8648 H   0  0  0  0  0  0  0  0  0  0  0  0
  153.1930  145.0550  160.3025 H   0  0  0  0  0  0  0  0  0  0  0  0
  150.5632  143.5761  159.9719 H   0  0  0  0  0  0  0  0  0  0  0  0
  152.2302  145.0479  157.8690 H   0  0  0  0  0  0  0  0  0  0  0  0
  150.7399  145.6439  158.5859 H   0  0  0  0  0  0  0  0  0  0  0  0
  150.7055  144.2230  157.5674 H   0  0  0  0  0  0  0  0  0  0  0  0
  153.1470  142.8520  158.5768 H   0  0  0  0  0  0  0  0  0  0  0  0
  151.8491  140.5472  158.6116 H   0  0  0  0  0  0  0  0  0  0  0  0
  150.4382  141.5062  158.9710 H   0  0  0  0  0  0  0  0  0  0  0  0
  151.5089  142.8357  156.9395 H   0  0  0  0  0  0  0  0  0  0  0  0
  149.3354  140.9804  157.2544 H   0  0  0  0  0  0  0  0  0  0  0  0
  149.3116  142.6516  156.7122 H   0  0  0  0  0  0  0  0  0  0  0  0
  150.4906  141.8296  154.5452 H   0  0  0  0  0  0  0  0  0  0  0  0
  150.1614  140.1946  155.0875 H   0  0  0  0  0  0  0  0  0  0  0  0
  148.5832  139.8775  152.9704 H   0  0  0  0  0  0  0  0  0  0  0  0
  145.9528  140.6695  152.6195 H   0  0  0  0  0  0  0  0  0  0  0  0
  147.5572  142.7607  155.8501 H   0  0  0  0  0  0  0  0  0  0  0  0
  151.8319  141.2764  156.5437 H   0  0  0  0  0  0  0  0  0  0  0  0
  1  2  1  0  0  0  0
  1 18  1  0  0  0  0
  1 19  1  0  0  0  0
  1 20  1  0  0  0  0
  2  8  1  0  0  0  0
  2  3  2  0  0  0  0
  3  4  1  0  0  0  0
  3 21  1  0  0  0  0
  4  5  1  0  0  0  0
  4 22  1  0  0  0  0
  4 23  1  0  0  0  0
  5  6  1  0  0  0  0
  5 24  1  0  0  0  0
  5 25  1  0  0  0  0
  6  7  1  0  0  0  0
  6  8  1  0  0  0  0
  6 26  1  0  0  0  0
  7 27  1  0  0  0  0
  7 28  1  0  0  0  0
  7 29  1  0  0  0  0
  8  9  1  0  0  0  0
  8 30  1  0  0  0  0
  9 10  1  0  0  0  0
  9 31  1  0  0  0  0
  9 32  1  0  0  0  0
 10 11  1  0  0  0  0
 10 33  1  0  0  0  0
 10 41  1  0  0  0  0
 11 12  1  0  0  0  0
 11 34  1  0  0  0  0
 11 35  1  0  0  0  0
 12 13  1  0  0  0  0
 12 36  1  0  0  0  0
 12 37  1  0  0  0  0
 13 17  1  0  0  0  0
 13 14  1  0  0  0  0
 14 15  2  0  0  0  0
 14 38  1  0  0  0  0
 15 16  1  0  0  0  0
 15 39  1  0  0  0  0
 16 17  2  0  0  0  0
 17 40  1  0  0  0  0
M  CHG  1  10   1
M  END
> <s_m_source_file>
AV-unprocessed.smi

> <i_m_source_file_index>
3187

> <i_lp_mmshare_version>
43012

> <i_f3d_flags>
0

> <s_epik_input>
W0NIM11DMT1bQ0hdW0NIMl1bQ0gyXVtDQEBIXShbQ0gzXSlbQ0BIXTFbQ0gyXVtOSF1bQ0gyXVtDSDJdbjJbY0hdW2NIXW5bY0hdMg==

> <s_epik_cmdline>
J2VwaWtfcHl0aG9uJywgJy1waCcsICc3LjAnLCAnLXRuJywgJzgnLCAnLW1hJywgJzIwMCcsICctbWV0YWxfYmluZGluZycsICctaW1hZScsICc8aW5maWxlLm1hZT4nLCAnLW9tYWUnLCAnPG91dGZpbGUubWFlPic=

> <r_lp_tautomer_probability>
1

> <r_epik_Ionization_Penalty>
0.0501625

> <r_epik_Ionization_Penalty_Charging>
0.0501625

> <r_epik_Ionization_Penalty_Neutral>
0

> <r_epik_State_Penalty>
0.0972392

> <r_epik_Charging_Adjusted_Penalty>
0.147402

> <i_epik_Tot_Q>
1

> <i_epik_Tot_abs_Q>
1

> <r_epik_Metal_State_Penalty>
0.000104376

> <b_epik_Metal_Only>
0

> <s_lp_Force_Field>
OPLS_2005

> <r_lp_Energy>
17.2086

> <b_lp_Chiralities_Consistent>
1

> <s_lp_Variant>
AV-unprocessed.smi:3187-3

> <Gold.Version>
5.8.1

> <Gold.Id.Protein>
6NUR|6NUR_protein|mol2

> <Gold.PLP.Fitness>
49.0473

> <Gold.PLP.PLP>
-42.7440

> <Gold.PLP.part.hbond>
0.0000

> <Gold.PLP.part.metal>
0.0000

> <Gold.PLP.part.buried>
-0.7342

> <Gold.PLP.part.nonpolar>
-41.9179

> <Gold.PLP.part.repulsive>
0.2433

> <Gold.PLP.ligand.clash>
0.0000

> <Gold.PLP.ligand.torsion>
1.0877

> <Gold.PLP.Chemscore.Hbond>
0.0000

> <Gold.PLP.Chemscore.CHOScore>
2.8130

> <Gold.PLP.Chemscore.Metal>
0.0000

> <Gold.Chemscore.Hbonds>
donor molecule, donor type, donor heavy atom, donor atom, acceptor molecule, acceptor atom, score
      L1  C    14    38       P1  7957  1.00
      L1  C    15    39       P1 10175  1.00
      L1  C    17    40       P1  8028  0.80

> <Gold.PLP.Chemscore.Internal.Correction>
0.0398

> <Gold.Rescore>
     Score         DG    S(hbond)    S(metal)    S(lipo)     H(rot)  DE(clash)    DE(int)     intcor
     13.81     -15.36       0.00        0.00     125.69       1.89       0.43       1.13       ----

> <Gold.Chemscore.Fitness>
13.8060

> <Gold.Chemscore.DG>
-15.3593

> <Gold.Chemscore.ZeroCoef>
-5.4800

> <Gold.Chemscore.Hbond>
0.0000

> <Gold.Chemscore.Metal>
0.0000

> <Gold.Chemscore.Lipo>
125.6884

> <Gold.Chemscore.Internal_Hbond>
0.0000

> <Gold.Chemscore.DEClash>
0.4265

> <Gold.Chemscore.DEInternal>
1.1268

> <Gold.Chemscore.Rot>
1.8853

> <Gold.Chemscore.Internal.Correction>
   9.000000E+99

> <Gold.Chemscore.Hbond.Weighted>
-0.0000

> <Gold.Chemscore.Metal.Weighted>
-0.0000

> <Gold.Chemscore.Lipo.Weighted>
-14.7055

> <Gold.Chemscore.Internal_Hbond.Weighted>
0.0000

> <Gold.Chemscore.DEClash.Weighted>
0.4265

> <Gold.Chemscore.DEInternal.Weighted>
1.1268

> <Gold.Chemscore.Rot.Weighted>
4.8263

> <Gold.Chemscore.Internal.Correction.Weighted>
   9.000000E+99

> <Gold.Protein.RotatedTorsions>
[ 6907 6896 6895 6894 ] final   44.15 input  -60.11 | X-H torsion
[ 7974 7965 7964 7962 ] final  -80.62 input  175.53 | X-H torsion
[ 8008 7997 7996 7995 ] final  -31.75 input   59.86 | X-H torsion
[ 10167 10162 10161 10158 ] final   81.02 input  -65.29 | X-H torsion
[ 10718 10713 10712 10709 ] final  -26.63 input   66.30 | X-H torsion
[ 10763 10752 10751 10750 ] final  176.82 input  -60.55 | X-H torsion
[ 11005 11000 10999 10996 ] final  -74.35 input  -57.11 | X-H torsion

> <Gold.Protein.ActiveResidues>
 VAL166  LYS551  ARG553  GLY616  TRP617  ASP618  TYR619  PRO620  LYS621  CYS622 
 ASP623  PHE694  ASN695  SER759  ASP760  ASP761  ALA762  ILE779  LEU786  VAL792 
 PHE793  MET794  SER795  GLU796  ALA797  LYS798  CYS799  TRP800  GLU811  SER814 

> <Gold.Protein.RotatedAtoms>
  152.2289  134.8341  160.0475 H   0  0  0  0  0  0  0  0  0  0  0  0  # atno 6907 bound_to 6896
  151.9097  133.3553  159.3867 H   0  0  0  0  0  0  0  0  0  0  0  0  # atno 6908 bound_to 6896
  150.7020  134.4670  159.5451 H   0  0  0  0  0  0  0  0  0  0  0  0  # atno 6909 bound_to 6896
  145.5576  140.9487  143.1465 H   0  0  0  0  0  0  0  0  0  0  0  0  # atno 7974 bound_to 7965
  154.4203  140.1756  156.1616 H   0  0  0  0  0  0  0  0  0  0  0  0  # atno 8008 bound_to 7997
  155.9833  140.3375  155.6659 H   0  0  0  0  0  0  0  0  0  0  0  0  # atno 8009 bound_to 7997
  155.6471  140.0686  157.2590 H   0  0  0  0  0  0  0  0  0  0  0  0  # atno 8010 bound_to 7997
  139.9436  144.6073  150.8228 H   0  0  0  0  0  0  0  0  0  0  0  0  # atno 10167 bound_to 10162
  156.4487  130.4479  149.7004 H   0  0  0  0  0  0  0  0  0  0  0  0  # atno 10718 bound_to 10713
  154.4863  135.2777  155.1531 H   0  0  0  0  0  0  0  0  0  0  0  0  # atno 10763 bound_to 10752
  154.3221  135.6207  153.5516 H   0  0  0  0  0  0  0  0  0  0  0  0  # atno 10764 bound_to 10752
  152.9882  135.5745  154.5275 H   0  0  0  0  0  0  0  0  0  0  0  0  # atno 10765 bound_to 10752
  141.1634  133.6908  156.7351 H   0  0  0  0  0  0  0  0  0  0  0  0  # atno 11005 bound_to 11000
  144.7499  139.7222  143.7277 LP  0  0  0  0  0  0  0  0  0  0  0  0  # atno 17320 bound_to 7965
  146.1874  139.5096  142.9827 LP  0  0  0  0  0  0  0  0  0  0  0  0  # atno 17321 bound_to 7965
  140.7604  143.3150  151.2755 LP  0  0  0  0  0  0  0  0  0  0  0  0  # atno 17342 bound_to 10162
  139.6685  144.0063  152.2738 LP  0  0  0  0  0  0  0  0  0  0  0  0  # atno 17343 bound_to 10162
  156.3840  130.7593  151.2589 LP  0  0  0  0  0  0  0  0  0  0  0  0  # atno 17370 bound_to 10713
  157.7504  131.0287  150.4062 LP  0  0  0  0  0  0  0  0  0  0  0  0  # atno 17371 bound_to 10713
  140.2716  134.8387  157.3852 LP  0  0  0  0  0  0  0  0  0  0  0  0  # atno 17394 bound_to 11000
  140.1516  134.4843  155.7957 LP  0  0  0  0  0  0  0  0  0  0  0  0  # atno 17395 bound_to 11000

$$$$
