AV-unprocessed.smi:2888|AV-procd|sdf|11100|dock5
  -GOLD-   2272015573D 1   1.00000     0.00000
 Structure written by MMmdl.
 33 35  0  0  0  0  0  0  0  0  1 V2000
  151.8802  145.3011  159.4383 C   0  0  0  0  0  0  0  0  0  0  0  0
  152.0202  143.8051  159.2539 C   0  0  0  0  0  0  0  0  0  0  0  0
  152.8749  143.0362  160.0712 C   0  0  0  0  0  0  0  0  0  0  0  0
  152.9154  141.6529  159.7973 C   0  0  0  0  0  0  0  0  0  0  0  0
  153.7876  140.7118  160.6008 C   0  0  0  0  0  0  0  0  0  0  0  0
  152.1762  141.1003  158.8098 N   0  0  0  0  0  0  0  0  0  0  0  0
  151.3986  141.9221  158.1002 C   0  0  0  0  0  0  0  0  0  0  0  0
  150.6501  141.3212  157.1050 N   0  0  0  0  0  0  0  0  0  0  0  0
  150.7832  139.9260  156.7050 C   0  0  2  0  0  0  0  0  0  0  0  0
  152.2079  139.5618  156.2686 C   0  0  0  0  0  0  0  0  0  0  0  0
  151.9742  139.0052  154.8588 C   0  0  1  0  0  0  0  0  0  0  0  0
  151.2316  137.6621  154.8795 C   0  0  0  0  0  0  0  0  0  0  0  0
  149.8134  138.0951  155.2504 C   0  0  0  0  0  0  0  0  0  0  0  0
  149.9820  139.6100  155.4308 C   0  0  2  0  0  0  0  0  0  0  0  0
  150.9420  139.8700  154.4189 O   0  0  0  0  0  0  0  0  0  0  0  0
  151.2829  143.2450  158.2703 N   0  0  0  0  0  0  0  0  0  0  0  0
  152.5703  145.6708  160.1972 H   0  0  0  0  0  0  0  0  0  0  0  0
  150.8651  145.5496  159.7489 H   0  0  0  0  0  0  0  0  0  0  0  0
  152.0918  145.8210  158.5036 H   0  0  0  0  0  0  0  0  0  0  0  0
  153.4628  143.4806  160.8610 H   0  0  0  0  0  0  0  0  0  0  0  0
  154.4262  141.2615  161.2926 H   0  0  0  0  0  0  0  0  0  0  0  0
  154.4276  140.1271  159.9394 H   0  0  0  0  0  0  0  0  0  0  0  0
  153.1698  140.0244  161.1788 H   0  0  0  0  0  0  0  0  0  0  0  0
  150.0991  141.9293  156.5169 H   0  0  0  0  0  0  0  0  0  0  0  0
  150.4433  139.2907  157.5241 H   0  0  0  0  0  0  0  0  0  0  0  0
  152.8528  140.4409  156.2222 H   0  0  0  0  0  0  0  0  0  0  0  0
  152.6776  138.8352  156.9325 H   0  0  0  0  0  0  0  0  0  0  0  0
  152.8638  139.0109  154.2286 H   0  0  0  0  0  0  0  0  0  0  0  0
  151.2432  137.1940  153.8946 H   0  0  0  0  0  0  0  0  0  0  0  0
  151.6633  136.9629  155.5963 H   0  0  0  0  0  0  0  0  0  0  0  0
  149.1227  137.8786  154.4347 H   0  0  0  0  0  0  0  0  0  0  0  0
  149.4417  137.6054  156.1510 H   0  0  0  0  0  0  0  0  0  0  0  0
  149.0500  140.1676  155.3298 H   0  0  0  0  0  0  0  0  0  0  0  0
  1  2  1  0  0  0  0
  1 17  1  0  0  0  0
  1 18  1  0  0  0  0
  1 19  1  0  0  0  0
  2 16  1  0  0  0  0
  2  3  2  0  0  0  0
  3  4  1  0  0  0  0
  3 20  1  0  0  0  0
  4  5  1  0  0  0  0
  4  6  2  0  0  0  0
  5 21  1  0  0  0  0
  5 22  1  0  0  0  0
  5 23  1  0  0  0  0
  6  7  1  0  0  0  0
  7  8  1  0  0  0  0
  7 16  2  0  0  0  0
  8  9  1  0  0  0  0
  8 24  1  0  0  0  0
  9 14  1  0  0  0  0
  9 10  1  0  0  0  0
  9 25  1  0  0  0  0
 10 11  1  0  0  0  0
 10 26  1  0  0  0  0
 10 27  1  0  0  0  0
 11 15  1  0  0  0  0
 11 12  1  0  0  0  0
 11 28  1  0  0  0  0
 12 13  1  0  0  0  0
 12 29  1  0  0  0  0
 12 30  1  0  0  0  0
 13 14  1  0  0  0  0
 13 31  1  0  0  0  0
 13 32  1  0  0  0  0
 14 15  1  0  0  0  0
 14 33  1  0  0  0  0
M  END
> <s_m_source_file>
AV-unprocessed.smi

> <i_m_source_file_index>
2888

> <i_lp_mmshare_version>
43012

> <i_f3d_flags>
0

> <s_epik_input>
W0NIM11jMVtjSF1jKFtDSDNdKW5jKG4xKVtOSF1bQ0BIXShbQ0gyXVtDQEBIXTIzKVtDQEBIXShPMylbQ0gyXVtDSDJdMg==

> <s_epik_cmdline>
J2VwaWtfcHl0aG9uJywgJy1waCcsICc3LjAnLCAnLXRuJywgJzgnLCAnLW1hJywgJzIwMCcsICctbWV0YWxfYmluZGluZycsICctaW1hZScsICc8aW5maWxlLm1hZT4nLCAnLW9tYWUnLCAnPG91dGZpbGUubWFlPic=

> <r_lp_tautomer_probability>
1

> <r_epik_Ionization_Penalty>
0.00890508

> <r_epik_Ionization_Penalty_Charging>
0

> <r_epik_Ionization_Penalty_Neutral>
0.00890508

> <r_epik_State_Penalty>
0.0067342

> <r_epik_Charging_Adjusted_Penalty>
0.0067342

> <i_epik_Tot_Q>
0

> <i_epik_Tot_abs_Q>
0

> <r_epik_Metal_State_Penalty>
0.00663442

> <b_epik_Metal_Only>
0

> <s_lp_Force_Field>
OPLS_2005

> <r_lp_Energy>
31.5378

> <b_lp_Chiralities_Consistent>
1

> <s_lp_Variant>
AV-unprocessed.smi:2888-1

> <Gold.Version>
5.8.1

> <Gold.Id.Protein>
6NUR|6NUR_protein|mol2

> <Gold.PLP.Fitness>
38.3020

> <Gold.PLP.PLP>
-35.4218

> <Gold.PLP.part.hbond>
-1.0000

> <Gold.PLP.part.metal>
0.0000

> <Gold.PLP.part.buried>
-4.7380

> <Gold.PLP.part.nonpolar>
-30.6370

> <Gold.PLP.part.repulsive>
0.2409

> <Gold.PLP.ligand.clash>
0.0000

> <Gold.PLP.ligand.torsion>
0.0562

> <Gold.PLP.Chemscore.Hbond>
0.9913

> <Gold.PLP.Chemscore.CHOScore>
0.0000

> <Gold.PLP.Chemscore.Metal>
0.0000

> <Gold.Chemscore.Hbonds>
donor molecule, donor type, donor heavy atom, donor atom, acceptor molecule, acceptor atom, score
      P1  H  7989  7998       L1    15  0.98

> <Gold.PLP.Chemscore.Internal.Correction>
0.0187

> <Gold.Rescore>
     Score         DG    S(hbond)    S(metal)    S(lipo)     H(rot)  DE(clash)    DE(int)     intcor
     15.96     -17.25       0.99        0.00      94.17       1.00       0.07       1.22       ----

> <Gold.Chemscore.Fitness>
15.9577

> <Gold.Chemscore.DG>
-17.2493

> <Gold.Chemscore.ZeroCoef>
-5.4800

> <Gold.Chemscore.Hbond>
0.9916

> <Gold.Chemscore.Metal>
0.0000

> <Gold.Chemscore.Lipo>
94.1665

> <Gold.Chemscore.Internal_Hbond>
0.0000

> <Gold.Chemscore.DEClash>
0.0724

> <Gold.Chemscore.DEInternal>
1.2192

> <Gold.Chemscore.Rot>
1.0000

> <Gold.Chemscore.Internal.Correction>
   9.000000E+99

> <Gold.Chemscore.Hbonds>
donor molecule, donor type, donor heavy atom, donor atom, acceptor molecule, acceptor atom, score
      P1  H  7989  7998       L1    15  0.46

> <Gold.Chemscore.Hbond.Weighted>
-3.3118

> <Gold.Chemscore.Metal.Weighted>
-0.0000

> <Gold.Chemscore.Lipo.Weighted>
-11.0175

> <Gold.Chemscore.Internal_Hbond.Weighted>
0.0000

> <Gold.Chemscore.DEClash.Weighted>
0.0724

> <Gold.Chemscore.DEInternal.Weighted>
1.2192

> <Gold.Chemscore.Rot.Weighted>
2.5600

> <Gold.Chemscore.Internal.Correction.Weighted>
   9.000000E+99

> <Gold.Protein.RotatedTorsions>
[ 6907 6896 6895 6894 ] final  170.19 input  -60.11 | X-H torsion
[ 7974 7965 7964 7962 ] final  -43.48 input  175.53 | X-H torsion
[ 8008 7997 7996 7995 ] final   68.62 input   59.86 | X-H torsion
[ 10167 10162 10161 10158 ] final  -39.34 input  -65.29 | X-H torsion
[ 10718 10713 10712 10709 ] final  118.23 input   66.30 | X-H torsion
[ 10763 10752 10751 10750 ] final  162.58 input  -60.55 | X-H torsion
[ 11005 11000 10999 10996 ] final  -93.81 input  -57.11 | X-H torsion

> <Gold.Protein.ActiveResidues>
 VAL166  LYS551  ARG553  GLY616  TRP617  ASP618  TYR619  PRO620  LYS621  CYS622 
 ASP623  PHE694  ASN695  SER759  ASP760  ASP761  ALA762  ILE779  LEU786  VAL792 
 PHE793  MET794  SER795  GLU796  ALA797  LYS798  CYS799  TRP800  GLU811  SER814 

> <Gold.Protein.RotatedAtoms>
  151.8199  133.3393  159.3580 H   0  0  0  0  0  0  0  0  0  0  0  0  # atno 6907 bound_to 6896
  150.7298  134.5583  159.5839 H   0  0  0  0  0  0  0  0  0  0  0  0  # atno 6908 bound_to 6896
  152.3013  134.7608  160.0408 H   0  0  0  0  0  0  0  0  0  0  0  0  # atno 6909 bound_to 6896
  146.0014  140.7069  142.9268 H   0  0  0  0  0  0  0  0  0  0  0  0  # atno 7974 bound_to 7965
  155.7111  140.3494  155.4974 H   0  0  0  0  0  0  0  0  0  0  0  0  # atno 8008 bound_to 7997
  155.9355  140.1092  157.1120 H   0  0  0  0  0  0  0  0  0  0  0  0  # atno 8009 bound_to 7997
  154.4093  140.1223  156.4845 H   0  0  0  0  0  0  0  0  0  0  0  0  # atno 8010 bound_to 7997
  140.7067  143.3220  151.2768 H   0  0  0  0  0  0  0  0  0  0  0  0  # atno 10167 bound_to 10162
  157.6044  131.1046  150.7727 H   0  0  0  0  0  0  0  0  0  0  0  0  # atno 10718 bound_to 10713
  154.2806  135.2763  155.2699 H   0  0  0  0  0  0  0  0  0  0  0  0  # atno 10763 bound_to 10752
  154.5222  135.5753  153.6693 H   0  0  0  0  0  0  0  0  0  0  0  0  # atno 10764 bound_to 10752
  152.9930  135.6207  154.2965 H   0  0  0  0  0  0  0  0  0  0  0  0  # atno 10765 bound_to 10752
  141.1487  133.7913  157.0212 H   0  0  0  0  0  0  0  0  0  0  0  0  # atno 11005 bound_to 11000
  144.6921  140.3240  143.7227 LP  0  0  0  0  0  0  0  0  0  0  0  0  # atno 17320 bound_to 7965
  145.7481  139.1785  143.2337 LP  0  0  0  0  0  0  0  0  0  0  0  0  # atno 17321 bound_to 7965
  139.6677  144.0075  152.2733 LP  0  0  0  0  0  0  0  0  0  0  0  0  # atno 17342 bound_to 10162
  139.9663  144.6524  150.8031 LP  0  0  0  0  0  0  0  0  0  0  0  0  # atno 17343 bound_to 10162
  156.8119  130.4955  149.5355 LP  0  0  0  0  0  0  0  0  0  0  0  0  # atno 17370 bound_to 10713
  156.1126  130.6051  151.0070 LP  0  0  0  0  0  0  0  0  0  0  0  0  # atno 17371 bound_to 10713
  140.0815  134.9645  157.1631 LP  0  0  0  0  0  0  0  0  0  0  0  0  # atno 17394 bound_to 11000
  140.3571  134.2535  155.7191 LP  0  0  0  0  0  0  0  0  0  0  0  0  # atno 17395 bound_to 11000

$$$$
