AV-unprocessed.smi:3194|AV-procd|sdf|12212|dock2
  -GOLD-   2272018 53D 1   1.00000     0.00000
 Structure written by MMmdl.
 27 27  0  0  0  0  0  0  0  0  2 V2000
  151.8045  137.3020  156.5546 C   0  0  0  0  0  0  0  0  0  0  0  0
  152.8833  137.9841  157.4085 C   0  0  2  0  0  0  0  0  0  0  0  0
  152.7183  137.6337  158.9005 C   0  0  0  0  0  0  0  0  0  0  0  0
  153.0222  136.2745  159.1471 O   0  0  0  0  0  0  0  0  0  0  0  0
  152.7761  139.4336  157.2298 N   0  5  0  0  0  0  0  0  0  0  0  0
  151.9032  140.0435  156.3761 C   0  0  0  0  0  0  0  0  0  0  0  0
  151.8479  140.0092  155.1413 O   0  0  0  0  0  0  0  0  0  0  0  0
  150.8650  140.8970  157.1347 C   0  0  0  0  0  0  0  0  0  0  0  0
  150.0211  141.4442  156.2555 F   0  0  0  0  0  0  0  0  0  0  0  0
  150.1438  140.1103  157.9402 F   0  0  0  0  0  0  0  0  0  0  0  0
  151.5535  142.0019  157.9361 C   0  0  0  0  0  0  0  0  0  0  0  0
  151.3585  143.3650  157.6141 C   0  0  0  0  0  0  0  0  0  0  0  0
  152.0005  144.3435  158.3962 C   0  0  0  0  0  0  0  0  0  0  0  0
  152.8140  143.9299  159.4679 C   0  0  0  0  0  0  0  0  0  0  0  0
  152.9474  142.5489  159.7112 C   0  0  0  0  0  0  0  0  0  0  0  0
  152.3365  141.6024  158.9677 N   0  0  0  0  0  0  0  0  0  0  0  0
  153.8477  137.5935  157.0788 H   0  0  0  0  0  0  0  0  0  0  0  0
  151.8577  136.2175  156.6523 H   0  0  0  0  0  0  0  0  0  0  0  0
  151.9291  137.5413  155.4979 H   0  0  0  0  0  0  0  0  0  0  0  0
  150.8024  137.6133  156.8522 H   0  0  0  0  0  0  0  0  0  0  0  0
  153.3573  138.2622  159.5222 H   0  0  0  0  0  0  0  0  0  0  0  0
  151.6907  137.8115  159.2180 H   0  0  0  0  0  0  0  0  0  0  0  0
  153.2611  135.8681  158.3289 H   0  0  0  0  0  0  0  0  0  0  0  0
  150.7191  143.6564  156.7941 H   0  0  0  0  0  0  0  0  0  0  0  0
  151.8684  145.3933  158.1794 H   0  0  0  0  0  0  0  0  0  0  0  0
  153.3206  144.6523  160.0901 H   0  0  0  0  0  0  0  0  0  0  0  0
  153.5623  142.1946  160.5253 H   0  0  0  0  0  0  0  0  0  0  0  0
  1  2  1  0  0  0  0
  1 18  1  0  0  0  0
  1 19  1  0  0  0  0
  1 20  1  0  0  0  0
  2 17  1  0  0  0  0
  2  3  1  0  0  0  0
  2  5  1  0  0  0  0
  3  4  1  0  0  0  0
  3 21  1  0  0  0  0
  3 22  1  0  0  0  0
  4 23  1  0  0  0  0
  5  6  1  0  0  0  0
  6  7  2  0  0  0  0
  6  8  1  0  0  0  0
  8  9  1  0  0  0  0
  8 10  1  0  0  0  0
  8 11  1  0  0  0  0
 11 16  1  0  0  0  0
 11 12  2  0  0  0  0
 12 13  1  0  0  0  0
 12 24  1  0  0  0  0
 13 14  2  0  0  0  0
 13 25  1  0  0  0  0
 14 15  1  0  0  0  0
 14 26  1  0  0  0  0
 15 16  2  0  0  0  0
 15 27  1  0  0  0  0
M  CHG  1   5  -1
M  END
> <s_m_source_file>
AV-unprocessed.smi

> <i_m_source_file_index>
3194

> <i_lp_mmshare_version>
43012

> <i_f3d_flags>
0

> <s_epik_input>
W09IXVtDSDJdW0NASF0oW0NIM10pW05IXUMoPU8pQyhGKShGKWMxW2NIXVtjSF1bY0hdW2NIXW4x

> <s_epik_cmdline>
J2VwaWtfcHl0aG9uJywgJy1waCcsICc3LjAnLCAnLXRuJywgJzgnLCAnLW1hJywgJzIwMCcsICctbWV0YWxfYmluZGluZycsICctaW1hZScsICc8aW5maWxlLm1hZT4nLCAnLW9tYWUnLCAnPG91dGZpbGUubWFlPic=

> <r_lp_tautomer_probability>
1

> <r_epik_Ionization_Penalty>
5.78943

> <r_epik_Ionization_Penalty_Charging>
5.78942

> <r_epik_Ionization_Penalty_Neutral>
4.0054e-06

> <r_epik_State_Penalty>
5.78939

> <r_epik_Charging_Adjusted_Penalty>
11.5788

> <i_epik_Tot_Q>
-1

> <i_epik_Tot_abs_Q>
1

> <r_epik_Metal_State_Penalty>
1.76064

> <b_epik_Metal_Only>
1

> <s_lp_Force_Field>
OPLS_2005

> <r_lp_Energy>
16.8834

> <b_lp_Chiralities_Consistent>
1

> <s_lp_Variant>
AV-unprocessed.smi:3194-4

> <Gold.Version>
5.8.1

> <Gold.Id.Protein>
6NUR|6NUR_protein|mol2

> <Gold.PLP.Fitness>
40.5123

> <Gold.PLP.PLP>
-31.7668

> <Gold.PLP.part.hbond>
-3.0000

> <Gold.PLP.part.metal>
0.0000

> <Gold.PLP.part.buried>
-5.1771

> <Gold.PLP.part.nonpolar>
-24.2939

> <Gold.PLP.part.repulsive>
0.0289

> <Gold.PLP.ligand.clash>
1.6089

> <Gold.PLP.ligand.torsion>
0.7799

> <Gold.PLP.Chemscore.Hbond>
3.9360

> <Gold.PLP.Chemscore.CHOScore>
0.0000

> <Gold.PLP.Chemscore.Metal>
0.0000

> <Gold.Chemscore.Hbonds>
donor molecule, donor type, donor heavy atom, donor atom, acceptor molecule, acceptor atom, score
      P1  H  6896  6909       L1     4  0.91
      P1  H  7989  7998       L1     7  0.91
      P1  H  7997  8009       L1     5  1.70

> <Gold.PLP.Chemscore.Internal.Correction>
0.1062

> <Gold.Rescore>
     Score         DG    S(hbond)    S(metal)    S(lipo)     H(rot)  DE(clash)    DE(int)     intcor
     13.19     -15.38       2.21        0.00      74.67       2.43       0.00       2.19       ----

> <Gold.Chemscore.Fitness>
13.1926

> <Gold.Chemscore.DG>
-15.3835

> <Gold.Chemscore.ZeroCoef>
-5.4800

> <Gold.Chemscore.Hbond>
2.2103

> <Gold.Chemscore.Metal>
0.0000

> <Gold.Chemscore.Lipo>
74.6664

> <Gold.Chemscore.Internal_Hbond>
0.0000

> <Gold.Chemscore.DEClash>
0.0000

> <Gold.Chemscore.DEInternal>
2.1909

> <Gold.Chemscore.Rot>
2.4277

> <Gold.Chemscore.Internal.Correction>
   9.000000E+99

> <Gold.Chemscore.Hbonds>
donor molecule, donor type, donor heavy atom, donor atom, acceptor molecule, acceptor atom, score
      P1  H  6896  6909       L1     4  0.35
      P1  H  7989  7998       L1     7  0.88
      P1  H  7997  8009       L1     5  0.11

> <Gold.Chemscore.Hbond.Weighted>
-7.3824

> <Gold.Chemscore.Metal.Weighted>
-0.0000

> <Gold.Chemscore.Lipo.Weighted>
-8.7360

> <Gold.Chemscore.Internal_Hbond.Weighted>
0.0000

> <Gold.Chemscore.DEClash.Weighted>
0.0000

> <Gold.Chemscore.DEInternal.Weighted>
2.1909

> <Gold.Chemscore.Rot.Weighted>
6.2149

> <Gold.Chemscore.Internal.Correction.Weighted>
   9.000000E+99

> <Gold.Protein.RotatedTorsions>
[ 6907 6896 6895 6894 ] final  156.34 input  -60.11 | X-H torsion
[ 7974 7965 7964 7962 ] final  -39.54 input  175.53 | X-H torsion
[ 8008 7997 7996 7995 ] final -168.50 input   59.86 | X-H torsion
[ 10167 10162 10161 10158 ] final  146.50 input  -65.29 | X-H torsion
[ 10718 10713 10712 10709 ] final -172.38 input   66.30 | X-H torsion
[ 10763 10752 10751 10750 ] final -125.01 input  -60.55 | X-H torsion
[ 11005 11000 10999 10996 ] final  176.07 input  -57.11 | X-H torsion

> <Gold.Protein.ActiveResidues>
 VAL166  LYS551  ARG553  GLY616  TRP617  ASP618  TYR619  PRO620  LYS621  CYS622 
 ASP623  PHE694  ASN695  SER759  ASP760  ASP761  ALA762  ILE779  LEU786  VAL792 
 PHE793  MET794  SER795  GLU796  ALA797  LYS798  CYS799  TRP800  GLU811  SER814 

> <Gold.Protein.RotatedAtoms>
  152.0311  133.3937  159.4297 H   0  0  0  0  0  0  0  0  0  0  0  0  # atno 6907 bound_to 6896
  150.6882  134.3520  159.4922 H   0  0  0  0  0  0  0  0  0  0  0  0  # atno 6908 bound_to 6896
  152.1306  134.9137  160.0609 H   0  0  0  0  0  0  0  0  0  0  0  0  # atno 6909 bound_to 6896
  146.0387  140.6637  142.9097 H   0  0  0  0  0  0  0  0  0  0  0  0  # atno 7974 bound_to 7965
  155.8922  140.1027  157.1410 H   0  0  0  0  0  0  0  0  0  0  0  0  # atno 8008 bound_to 7997
  154.4016  140.1308  156.4394 H   0  0  0  0  0  0  0  0  0  0  0  0  # atno 8009 bound_to 7997
  155.7520  140.3465  155.5157 H   0  0  0  0  0  0  0  0  0  0  0  0  # atno 8010 bound_to 7997
  139.4906  144.5824  151.6844 H   0  0  0  0  0  0  0  0  0  0  0  0  # atno 10167 bound_to 10162
  156.7547  130.9391  151.3116 H   0  0  0  0  0  0  0  0  0  0  0  0  # atno 10718 bound_to 10713
  154.8730  135.4044  154.3198 H   0  0  0  0  0  0  0  0  0  0  0  0  # atno 10763 bound_to 10752
  153.4028  135.7018  153.6419 H   0  0  0  0  0  0  0  0  0  0  0  0  # atno 10764 bound_to 10752
  153.5154  135.3698  155.2577 H   0  0  0  0  0  0  0  0  0  0  0  0  # atno 10765 bound_to 10752
  140.3691  134.7045  157.4381 H   0  0  0  0  0  0  0  0  0  0  0  0  # atno 11005 bound_to 11000
  144.7064  140.3868  143.7115 LP  0  0  0  0  0  0  0  0  0  0  0  0  # atno 17320 bound_to 7965
  145.6921  139.1641  143.2641 LP  0  0  0  0  0  0  0  0  0  0  0  0  # atno 17321 bound_to 7965
  140.5433  144.0543  150.6097 LP  0  0  0  0  0  0  0  0  0  0  0  0  # atno 17342 bound_to 10162
  140.3573  143.2928  152.0422 LP  0  0  0  0  0  0  0  0  0  0  0  0  # atno 17343 bound_to 10162
  157.6761  130.9096  150.0155 LP  0  0  0  0  0  0  0  0  0  0  0  0  # atno 17370 bound_to 10713
  156.1378  130.3642  149.9629 LP  0  0  0  0  0  0  0  0  0  0  0  0  # atno 17371 bound_to 10713
  140.0566  134.6055  155.8798 LP  0  0  0  0  0  0  0  0  0  0  0  0  # atno 17394 bound_to 11000
  141.1960  133.6589  156.5671 LP  0  0  0  0  0  0  0  0  0  0  0  0  # atno 17395 bound_to 11000

$$$$
