AV-unprocessed.smi:263|AV-procd|sdf|2003|dock1
  -GOLD-   2262021193D 1   1.00000     0.00000
 Structure written by MMmdl.
 57 61  0  0  0  0  0  0  0  0  1 V2000
  149.1073  133.9670  156.9015 O   0  0  0  0  0  0  0  0  0  0  0  0
  149.6831  134.2901  155.6472 C   0  0  0  0  0  0  0  0  0  0  0  0
  151.1438  134.7371  155.9049 C   0  0  0  0  0  0  0  0  0  0  0  0
  151.2639  136.1057  156.3840 N   0  0  0  0  0  0  0  0  0  0  0  0
  151.4855  136.5121  157.6804 C   0  0  0  0  0  0  0  0  0  0  0  0
  151.5586  137.8037  157.8536 N   0  0  0  0  0  0  0  0  0  0  0  0
  151.3740  138.3294  156.5799 C   0  0  0  0  0  0  0  0  0  0  0  0
  151.3351  139.6493  156.0472 C   0  0  0  0  0  0  0  0  0  0  0  0
  151.5230  140.7560  156.8112 N   0  0  0  0  0  0  0  0  0  0  0  0
  150.6759  141.8916  156.4463 C   0  0  0  0  0  0  0  0  0  0  0  0
  151.1791  143.1975  157.0908 C   0  0  0  0  0  0  0  0  0  0  0  0
  151.3615  143.0574  158.6168 C   0  0  2  0  0  0  0  0  0  0  0  0
  150.0754  142.8679  159.1851 O   0  0  0  0  0  0  0  0  0  0  0  0
  151.9651  144.3355  159.2413 C   0  0  0  0  0  0  0  0  0  0  0  0
  152.2558  144.1701  160.7453 C   0  0  0  0  0  0  0  0  0  0  0  0
  153.1412  142.9438  161.0193 C   0  0  0  0  0  0  0  0  0  0  0  0
  152.5345  141.6654  160.4176 C   0  0  0  0  0  0  0  0  0  0  0  0
  152.2711  141.8358  158.9088 C   0  0  1  0  0  0  0  0  0  0  0  0
  151.7224  140.5567  158.2485 C   0  0  0  0  0  0  0  0  0  0  0  0
  151.1041  139.7770  154.7125 N   0  0  0  0  0  0  0  0  0  0  0  0
  150.9322  138.6938  153.9492 C   0  0  0  0  0  0  0  0  0  0  0  0
  150.9499  137.4092  154.3083 N   0  0  0  0  0  0  0  0  0  0  0  0
  151.1746  137.2733  155.6464 C   0  0  0  0  0  0  0  0  0  0  0  0
  149.5907  133.0467  154.7349 C   0  0  0  0  0  0  0  0  0  0  0  0
  148.1410  132.7364  154.3224 C   0  0  0  0  0  0  0  0  0  0  0  0
  147.5534  133.8762  153.7071 O   0  0  0  0  0  0  0  0  0  0  0  0
  147.4613  134.9881  154.5893 C   0  0  0  0  0  0  0  0  0  0  0  0
  148.8691  135.4396  155.0185 C   0  0  0  0  0  0  0  0  0  0  0  0
  149.7634  133.5427  157.4328 H   0  0  0  0  0  0  0  0  0  0  0  0
  151.6076  134.0815  156.6432 H   0  0  0  0  0  0  0  0  0  0  0  0
  151.7408  134.6373  154.9971 H   0  0  0  0  0  0  0  0  0  0  0  0
  151.5967  135.8153  158.4985 H   0  0  0  0  0  0  0  0  0  0  0  0
  150.6337  142.0235  155.3658 H   0  0  0  0  0  0  0  0  0  0  0  0
  149.6555  141.6827  156.7699 H   0  0  0  0  0  0  0  0  0  0  0  0
  152.1326  143.4677  156.6351 H   0  0  0  0  0  0  0  0  0  0  0  0
  150.4913  144.0125  156.8616 H   0  0  0  0  0  0  0  0  0  0  0  0
  149.9252  141.9399  159.2805 H   0  0  0  0  0  0  0  0  0  0  0  0
  152.8968  144.5820  158.7304 H   0  0  0  0  0  0  0  0  0  0  0  0
  151.3002  145.1861  159.0845 H   0  0  0  0  0  0  0  0  0  0  0  0
  152.7397  145.0686  161.1293 H   0  0  0  0  0  0  0  0  0  0  0  0
  151.3184  144.0716  161.2938 H   0  0  0  0  0  0  0  0  0  0  0  0
  154.1328  143.1100  160.5964 H   0  0  0  0  0  0  0  0  0  0  0  0
  153.2809  142.8190  162.0934 H   0  0  0  0  0  0  0  0  0  0  0  0
  153.2125  140.8278  160.5846 H   0  0  0  0  0  0  0  0  0  0  0  0
  151.6074  141.4178  160.9360 H   0  0  0  0  0  0  0  0  0  0  0  0
  153.2392  142.0338  158.4446 H   0  0  0  0  0  0  0  0  0  0  0  0
  150.7787  140.2648  158.7117 H   0  0  0  0  0  0  0  0  0  0  0  0
  152.4257  139.7384  158.4101 H   0  0  0  0  0  0  0  0  0  0  0  0
  150.7576  138.8836  152.9004 H   0  0  0  0  0  0  0  0  0  0  0  0
  150.1774  133.2199  153.8320 H   0  0  0  0  0  0  0  0  0  0  0  0
  150.0257  132.1725  155.2210 H   0  0  0  0  0  0  0  0  0  0  0  0
  148.1259  131.9087  153.6133 H   0  0  0  0  0  0  0  0  0  0  0  0
  147.5457  132.4248  155.1820 H   0  0  0  0  0  0  0  0  0  0  0  0
  146.9512  135.8016  154.0735 H   0  0  0  0  0  0  0  0  0  0  0  0
  146.8486  134.7311  155.4547 H   0  0  0  0  0  0  0  0  0  0  0  0
  148.7984  136.2820  155.7077 H   0  0  0  0  0  0  0  0  0  0  0  0
  149.3927  135.8115  154.1367 H   0  0  0  0  0  0  0  0  0  0  0  0
  1  2  1  0  0  0  0
  1 29  1  0  0  0  0
  2 28  1  0  0  0  0
  2  3  1  0  0  0  0
  2 24  1  0  0  0  0
  3  4  1  0  0  0  0
  3 30  1  0  0  0  0
  3 31  1  0  0  0  0
  4 23  1  0  0  0  0
  4  5  1  0  0  0  0
  5  6  2  0  0  0  0
  5 32  1  0  0  0  0
  6  7  1  0  0  0  0
  7 23  2  0  0  0  0
  7  8  1  0  0  0  0
  8  9  1  0  0  0  0
  8 20  2  0  0  0  0
  9 19  1  0  0  0  0
  9 10  1  0  0  0  0
 10 11  1  0  0  0  0
 10 33  1  0  0  0  0
 10 34  1  0  0  0  0
 11 12  1  0  0  0  0
 11 35  1  0  0  0  0
 11 36  1  0  0  0  0
 12 18  1  0  0  0  0
 12 13  1  0  0  0  0
 12 14  1  0  0  0  0
 13 37  1  0  0  0  0
 14 15  1  0  0  0  0
 14 38  1  0  0  0  0
 14 39  1  0  0  0  0
 15 16  1  0  0  0  0
 15 40  1  0  0  0  0
 15 41  1  0  0  0  0
 16 17  1  0  0  0  0
 16 42  1  0  0  0  0
 16 43  1  0  0  0  0
 17 18  1  0  0  0  0
 17 44  1  0  0  0  0
 17 45  1  0  0  0  0
 18 19  1  0  0  0  0
 18 46  1  0  0  0  0
 19 47  1  0  0  0  0
 19 48  1  0  0  0  0
 20 21  1  0  0  0  0
 21 22  2  0  0  0  0
 21 49  1  0  0  0  0
 22 23  1  0  0  0  0
 24 25  1  0  0  0  0
 24 50  1  0  0  0  0
 24 51  1  0  0  0  0
 25 26  1  0  0  0  0
 25 52  1  0  0  0  0
 25 53  1  0  0  0  0
 26 27  1  0  0  0  0
 27 28  1  0  0  0  0
 27 54  1  0  0  0  0
 27 55  1  0  0  0  0
 28 56  1  0  0  0  0
 28 57  1  0  0  0  0
M  END
> <s_m_source_file>
AV-unprocessed.smi

> <i_m_source_file_index>
263

> <i_lp_mmshare_version>
43012

> <i_f3d_flags>
0

> <s_epik_input>
W0NIMl0xW0NIMl1PW0NIMl1bQ0gyXUMxKFtPSF0pW0NIMl1uKFtjSF1uMiljKGMyMyluW2NIXW5jM04oW0NIMl1bQ0gyXTQpW0NIMl1bQ0BASF0oW0NAXTQ1W09IXSlbQ0gyXVtDSDJdW0NIMl1bQ0gyXTU=

> <s_epik_cmdline>
J2VwaWtfcHl0aG9uJywgJy1waCcsICc3LjAnLCAnLXRuJywgJzgnLCAnLW1hJywgJzIwMCcsICctbWV0YWxfYmluZGluZycsICctaW1hZScsICc8aW5maWxlLm1hZT4nLCAnLW9tYWUnLCAnPG91dGZpbGUubWFlPic=

> <r_lp_tautomer_probability>
1

> <r_epik_Ionization_Penalty>
0.00747493

> <r_epik_Ionization_Penalty_Charging>
0

> <r_epik_Ionization_Penalty_Neutral>
0.00747493

> <r_epik_State_Penalty>
0.00549307

> <r_epik_Charging_Adjusted_Penalty>
0.00549307

> <i_epik_Tot_Q>
0

> <i_epik_Tot_abs_Q>
0

> <r_epik_Metal_State_Penalty>
-0

> <b_epik_Metal_Only>
0

> <s_lp_Force_Field>
OPLS_2005

> <r_lp_Energy>
38.6154

> <b_lp_Chiralities_Consistent>
1

> <s_lp_Variant>
AV-unprocessed.smi:263-1

> <Gold.Version>
5.8.1

> <Gold.Id.Protein>
6NUR|6NUR_protein|mol2

> <Gold.PLP.Fitness>
47.0773

> <Gold.PLP.PLP>
-42.6843

> <Gold.PLP.part.hbond>
-1.9712

> <Gold.PLP.part.metal>
0.0000

> <Gold.PLP.part.buried>
-4.9101

> <Gold.PLP.part.nonpolar>
-36.4085

> <Gold.PLP.part.repulsive>
0.4081

> <Gold.PLP.ligand.clash>
0.0000

> <Gold.PLP.ligand.torsion>
0.8296

> <Gold.PLP.Chemscore.Hbond>
0.9500

> <Gold.PLP.Chemscore.CHOScore>
0.9381

> <Gold.PLP.Chemscore.Metal>
0.0000

> <Gold.Chemscore.Hbonds>
donor molecule, donor type, donor heavy atom, donor atom, acceptor molecule, acceptor atom, score
      P1  H  7989  7998       L1    20  0.90
      L1  C    21    49       P1  7957  0.96

> <Gold.PLP.Chemscore.Internal.Correction>
0.3881

> <Gold.Rescore>
     Score         DG    S(hbond)    S(metal)    S(lipo)     H(rot)  DE(clash)    DE(int)     intcor
     11.97     -14.55       0.74        0.00     113.80       2.62       0.45       2.13       ----

> <Gold.Chemscore.Fitness>
11.9744

> <Gold.Chemscore.DG>
-14.5532

> <Gold.Chemscore.ZeroCoef>
-5.4800

> <Gold.Chemscore.Hbond>
0.7408

> <Gold.Chemscore.Metal>
0.0000

> <Gold.Chemscore.Lipo>
113.7988

> <Gold.Chemscore.Internal_Hbond>
0.0000

> <Gold.Chemscore.DEClash>
0.4498

> <Gold.Chemscore.DEInternal>
2.1289

> <Gold.Chemscore.Rot>
2.6232

> <Gold.Chemscore.Internal.Correction>
   9.000000E+99

> <Gold.Chemscore.Hbonds>
donor molecule, donor type, donor heavy atom, donor atom, acceptor molecule, acceptor atom, score
      P1  H  7989  7998       L1    20  0.18

> <Gold.Chemscore.Hbond.Weighted>
-2.4742

> <Gold.Chemscore.Metal.Weighted>
-0.0000

> <Gold.Chemscore.Lipo.Weighted>
-13.3145

> <Gold.Chemscore.Internal_Hbond.Weighted>
0.0000

> <Gold.Chemscore.DEClash.Weighted>
0.4498

> <Gold.Chemscore.DEInternal.Weighted>
2.1289

> <Gold.Chemscore.Rot.Weighted>
6.7155

> <Gold.Chemscore.Internal.Correction.Weighted>
   9.000000E+99

> <Gold.Protein.RotatedTorsions>
[ 6907 6896 6895 6894 ] final -154.54 input  -60.11 | X-H torsion
[ 7974 7965 7964 7962 ] final   32.44 input  175.53 | X-H torsion
[ 8008 7997 7996 7995 ] final -116.99 input   59.86 | X-H torsion
[ 10167 10162 10161 10158 ] final  -89.00 input  -65.29 | X-H torsion
[ 10718 10713 10712 10709 ] final  -78.27 input   66.30 | X-H torsion
[ 10763 10752 10751 10750 ] final  -54.80 input  -60.55 | X-H torsion
[ 11005 11000 10999 10996 ] final  103.36 input  -57.11 | X-H torsion

> <Gold.Protein.ActiveResidues>
 VAL166  LYS551  ARG553  GLY616  TRP617  ASP618  TYR619  PRO620  LYS621  CYS622 
 ASP623  PHE694  ASN695  SER759  ASP760  ASP761  ALA762  ILE779  LEU786  VAL792 
 PHE793  MET794  SER795  GLU796  ALA797  LYS798  CYS799  TRP800  GLU811  SER814 

> <Gold.Protein.RotatedAtoms>
  151.2591  133.4311  159.2614 H   0  0  0  0  0  0  0  0  0  0  0  0  # atno 6907 bound_to 6896
  151.0547  134.9697  159.8240 H   0  0  0  0  0  0  0  0  0  0  0  0  # atno 6908 bound_to 6896
  152.5388  134.2543  159.8963 H   0  0  0  0  0  0  0  0  0  0  0  0  # atno 6909 bound_to 6896
  146.1486  139.6526  142.9114 H   0  0  0  0  0  0  0  0  0  0  0  0  # atno 7974 bound_to 7965
  155.0767  140.0394  157.2626 H   0  0  0  0  0  0  0  0  0  0  0  0  # atno 8008 bound_to 7997
  154.6939  140.2659  155.6760 H   0  0  0  0  0  0  0  0  0  0  0  0  # atno 8009 bound_to 7997
  156.2738  140.2754  156.1527 H   0  0  0  0  0  0  0  0  0  0  0  0  # atno 8010 bound_to 7997
  140.3691  143.2803  151.9522 H   0  0  0  0  0  0  0  0  0  0  0  0  # atno 10167 bound_to 10162
  156.0122  130.4513  150.3470 H   0  0  0  0  0  0  0  0  0  0  0  0  # atno 10718 bound_to 10713
  154.1806  135.6444  153.5033 H   0  0  0  0  0  0  0  0  0  0  0  0  # atno 10763 bound_to 10752
  153.0060  135.5405  154.6518 H   0  0  0  0  0  0  0  0  0  0  0  0  # atno 10764 bound_to 10752
  154.5881  135.2931  155.0636 H   0  0  0  0  0  0  0  0  0  0  0  0  # atno 10765 bound_to 10752
  139.8783  134.9260  156.5197 H   0  0  0  0  0  0  0  0  0  0  0  0  # atno 11005 bound_to 11000
  145.4877  141.0438  143.2610 LP  0  0  0  0  0  0  0  0  0  0  0  0  # atno 17320 bound_to 7965
  144.7876  139.6393  143.7127 LP  0  0  0  0  0  0  0  0  0  0  0  0  # atno 17321 bound_to 7965
  139.4805  144.5923  151.7750 LP  0  0  0  0  0  0  0  0  0  0  0  0  # atno 17342 bound_to 10162
  140.5051  144.1110  150.5980 LP  0  0  0  0  0  0  0  0  0  0  0  0  # atno 17343 bound_to 10162
  157.1564  131.0334  151.2861 LP  0  0  0  0  0  0  0  0  0  0  0  0  # atno 17370 bound_to 10713
  157.4348  130.7511  149.7020 LP  0  0  0  0  0  0  0  0  0  0  0  0  # atno 17371 bound_to 10713
  140.8459  133.8169  155.9121 LP  0  0  0  0  0  0  0  0  0  0  0  0  # atno 17394 bound_to 11000
  140.9191  134.2164  157.4937 LP  0  0  0  0  0  0  0  0  0  0  0  0  # atno 17395 bound_to 11000

$$$$
