#       Name:                AV-unprocessed.smi:670
#       Creating user name   scv26
#       Creation time:       Fri Mar 27 00:22:40 2020


#       File generated by GOLD software.
#

@<TRIPOS>MOLECULE
AV-unprocessed.smi:670
    54    55     1
SMALL
NO_CHARGES


@<TRIPOS>ATOM
      1 ****        -3.7490   0.5666   3.1292 C.3            1 S1                 0.0000
      2 ****        -3.3955   0.9276   1.6780 C.3            1 S1                 0.0000
      3 ****        -2.5347   2.2050   1.5989 C.3            1 S1                 0.0000
      4 ****        -2.2147   2.5813   0.1435 C.3            1 S1                 0.0000
      5 ****        -1.5474   1.4157  -0.6007 C.3            1 S1                 0.0000
      6 ****        -2.4067   0.1436  -0.5262 C.3            1 S1                 0.0000
      7 ****        -2.7192  -0.2471   0.9352 C.3            1 S1                 0.0000
      8 ****        -1.5209  -0.5832   1.6252 O.3            1 S1                 0.0000
      9 ****        -1.0593  -1.9082   1.4072 C.3            1 S1                 0.0000
     10 ****         0.3124  -2.0641   2.0785 C.3            1 S1                 0.0000
     11 ****         1.2917  -1.1435   1.5113 N.am           1 S1                 0.0000
     12 ****         1.9090  -1.3008   0.3311 C.2            1 S1                 0.0000
     13 ****         1.7320  -2.2797  -0.3959 O.2            1 S1                 0.0000
     14 ****         2.8796  -0.1805  -0.0707 C.3            1 S1                 0.0000
     15 ****         3.2616  -0.2153  -1.4900 N.am           1 S1                 0.0000
     16 ****         4.4872  -0.8177  -1.7310 N.2            1 S1                 0.0000
     17 ****         4.9270  -0.9239  -2.9392 C.2            1 S1                 0.0000
     18 ****         6.1434  -1.5310  -3.1337 O.3            1 S1                 0.0000
     19 ****         4.1649  -0.4192  -4.0605 C.2            1 S1                 0.0000
     20 ****         2.9747   0.1707  -3.8149 C.2            1 S1                 0.0000
     21 ****         2.4450   0.3059  -2.4568 C.2            1 S1                 0.0000
     22 ****         1.3639   0.8375  -2.2057 O.2            1 S1                 0.0000
     23 ****         6.2861  -1.5156  -4.0674 H              1 S1                 0.0000
     24 ****        -2.8548   0.3643   3.7195 H              1 S1                 0.0000
     25 ****        -4.3829  -0.3194   3.1700 H              1 S1                 0.0000
     26 ****        -4.2886   1.3803   3.6146 H              1 S1                 0.0000
     27 ****        -4.3363   1.1369   1.1669 H              1 S1                 0.0000
     28 ****        -3.0524   3.0342   2.0821 H              1 S1                 0.0000
     29 ****        -1.6046   2.0610   2.1501 H              1 S1                 0.0000
     30 ****        -3.1339   2.8637  -0.3710 H              1 S1                 0.0000
     31 ****        -1.5658   3.4571   0.1201 H              1 S1                 0.0000
     32 ****        -1.3778   1.6885  -1.6425 H              1 S1                 0.0000
     33 ****        -0.5650   1.2200  -0.1690 H              1 S1                 0.0000
     34 ****        -3.3432   0.3133  -1.0588 H              1 S1                 0.0000
     35 ****        -1.9091  -0.6689  -1.0542 H              1 S1                 0.0000
     36 ****        -3.3991  -1.1010   0.9466 H              1 S1                 0.0000
     37 ****        -1.7677  -2.6162   1.8388 H              1 S1                 0.0000
     38 ****        -0.9835  -2.1369   0.3445 H              1 S1                 0.0000
     39 ****         0.2280  -1.8628   3.1466 H              1 S1                 0.0000
     40 ****         0.6668  -3.0915   1.9819 H              1 S1                 0.0000
     41 ****         1.4952  -0.3114   2.0460 H              1 S1                 0.0000
     42 ****         2.4349   0.7864   0.1727 H              1 S1                 0.0000
     43 ****         3.7676  -0.2600   0.5589 H              1 S1                 0.0000
     44 ****         4.5463  -0.5145  -5.0665 H              1 S1                 0.0000
     45 ****         2.3957   0.5532  -4.6426 H              1 S1                 0.0000
     46 ****        -1.6835  -0.4678   2.6051 LP             1 S1                 0.0000
     47 ****        -0.8042   0.0484   1.3296 LP             1 S1                 0.0000
     48 ****         1.1031  -3.0044  -0.1143 LP             1 S1                 0.0000
     49 ****         2.2172  -2.3495  -1.2675 LP             1 S1                 0.0000
     50 ****         5.0300  -1.1697  -0.9685 LP             1 S1                 0.0000
     51 ****         6.1215  -2.4730  -2.7988 LP             1 S1                 0.0000
     52 ****         6.8657  -1.0260  -2.6612 LP             1 S1                 0.0000
     53 ****         1.0468   0.9032  -1.2596 LP             1 S1                 0.0000
     54 ****         0.8025   1.2038  -2.9478 LP             1 S1                 0.0000
@<TRIPOS>BOND
    1    1    2 1     
    2    1   24 1     
    3    1   25 1     
    4    1   26 1     
    5    2    7 1     
    6    2    3 1     
    7    2   27 1     
    8    3    4 1     
    9    3   28 1     
   10    3   29 1     
   11    4    5 1     
   12    4   30 1     
   13    4   31 1     
   14    5    6 1     
   15    5   32 1     
   16    5   33 1     
   17    6    7 1     
   18    6   34 1     
   19    6   35 1     
   20    7    8 1     
   21    7   36 1     
   22    8    9 1     
   23    9   10 1     
   24    9   37 1     
   25    9   38 1     
   26   10   11 1     
   27   10   39 1     
   28   10   40 1     
   29   11   12 am    
   30   11   41 1     
   31   12   13 2     
   32   12   14 1     
   33   14   42 1     
   34   14   43 1     
   35   14   15 1     
   36   15   16 1     
   37   15   21 am    
   38   16   17 2     
   39   17   18 1     
   40   17   19 1     
   41   18   23 1     
   42   19   44 1     
   43   19   20 2     
   44   20   45 1     
   45   20   21 1     
   46   21   22 2     
   47    8   46 1     
   48    8   47 1     
   49   13   48 1     
   50   13   49 1     
   51   16   50 1     
   52   18   51 1     
   53   18   52 1     
   54   22   53 1     
   55   22   54 1     
@<TRIPOS>SUBSTRUCTURE
      1 S1             1
@<TRIPOS>SET
LONE_PAIRS      STATIC     ATOMS    <user>   **** ""
9 46 47 48 49 50 51 52 53 54
DONOR_HYDROGENS      STATIC     ATOMS    <user>   **** ""
2 41 23
ATOM$BLUE        STATIC     ATOMS    COLORGROUP SYSTEM
9 46 47 48 49 50 51 52 53 54
ATOM$RED        STATIC     ATOMS    COLORGROUP SYSTEM
2 41 23
