AV-unprocessed.smi:1291|AV-procd|sdf|5392|dock8
  -GOLD-   22720 4543D 1   1.00000     0.00000
 Structure written by MMmdl.
 43 45  0  0  0  0  0  0  0  0  1 V2000
  152.5416  139.7853  154.8495 O   0  0  0  0  0  0  0  0  0  0  0  0
  151.7950  139.4000  155.9864 C   0  0  0  0  0  0  0  0  0  0  0  0
  152.1499  140.1554  157.2360 C   0  0  0  0  0  0  0  0  0  0  0  0
  153.1199  139.7706  158.0693 N   0  0  0  0  0  0  0  0  0  0  0  0
  153.0932  140.7481  159.0439 C   0  0  0  0  0  0  0  0  0  0  0  0
  153.8804  140.9072  160.2069 C   0  0  0  0  0  0  0  0  0  0  0  0
  153.6685  142.0041  161.0678 C   0  0  0  0  0  0  0  0  0  0  0  0
  152.6694  142.9558  160.7782 C   0  0  0  0  0  0  0  0  0  0  0  0
  151.8754  142.8168  159.6237 C   0  0  0  0  0  0  0  0  0  0  0  0
  152.0900  141.7192  158.7682 C   0  0  0  0  0  0  0  0  0  0  0  0
  151.4980  141.2941  157.5823 N   0  0  0  0  0  0  0  0  0  0  0  0
  150.4091  141.9569  156.8750 C   0  0  0  0  0  0  0  0  0  0  0  0
  149.1127  142.0477  157.7067 C   0  0  1  0  0  0  0  0  0  0  0  0
  148.9895  143.3509  158.2428 O   0  0  0  0  0  0  0  0  0  0  0  0
  147.8687  141.7549  156.8526 C   0  0  0  0  0  0  0  0  0  0  0  0
  146.7436  141.6071  157.7030 O   0  0  0  0  0  0  0  0  0  0  0  0
  146.0457  142.8251  157.9123 C   0  0  0  0  0  0  0  0  0  0  0  0
  145.7527  143.0946  159.3790 C   0  0  0  0  0  0  0  0  0  0  0  0
  146.5743  143.9590  160.1369 C   0  0  0  0  0  0  0  0  0  0  0  0
  146.2956  144.1917  161.4977 C   0  0  0  0  0  0  0  0  0  0  0  0
  145.1982  143.5585  162.1111 C   0  0  0  0  0  0  0  0  0  0  0  0
  144.3810  142.6897  161.3633 C   0  0  0  0  0  0  0  0  0  0  0  0
  144.6581  142.4557  160.0021 C   0  0  0  0  0  0  0  0  0  0  0  0
  143.8670  141.6131  159.2952 F   0  0  0  0  0  0  0  0  0  0  0  0
  153.3512  140.1765  155.1393 H   0  0  0  0  0  0  0  0  0  0  0  0
  150.7366  139.5474  155.7709 H   0  0  0  0  0  0  0  0  0  0  0  0
  151.9507  138.3343  156.1514 H   0  0  0  0  0  0  0  0  0  0  0  0
  154.6481  140.1834  160.4367 H   0  0  0  0  0  0  0  0  0  0  0  0
  154.2750  142.1153  161.9545 H   0  0  0  0  0  0  0  0  0  0  0  0
  152.5125  143.7924  161.4434 H   0  0  0  0  0  0  0  0  0  0  0  0
  151.1088  143.5437  159.4005 H   0  0  0  0  0  0  0  0  0  0  0  0
  150.7423  142.9552  156.5884 H   0  0  0  0  0  0  0  0  0  0  0  0
  150.2227  141.4254  155.9415 H   0  0  0  0  0  0  0  0  0  0  0  0
  149.1645  141.3361  158.5310 H   0  0  0  0  0  0  0  0  0  0  0  0
  149.1462  143.9768  157.5526 H   0  0  0  0  0  0  0  0  0  0  0  0
  147.7079  142.5384  156.1097 H   0  0  0  0  0  0  0  0  0  0  0  0
  148.0090  140.8193  156.3089 H   0  0  0  0  0  0  0  0  0  0  0  0
  146.6359  143.6523  157.5145 H   0  0  0  0  0  0  0  0  0  0  0  0
  145.0987  142.8090  157.3706 H   0  0  0  0  0  0  0  0  0  0  0  0
  147.4226  144.4504  159.6837 H   0  0  0  0  0  0  0  0  0  0  0  0
  146.9251  144.8562  162.0710 H   0  0  0  0  0  0  0  0  0  0  0  0
  144.9846  143.7373  163.1546 H   0  0  0  0  0  0  0  0  0  0  0  0
  143.5409  142.2012  161.8344 H   0  0  0  0  0  0  0  0  0  0  0  0
  1  2  1  0  0  0  0
  1 25  1  0  0  0  0
  2  3  1  0  0  0  0
  2 26  1  0  0  0  0
  2 27  1  0  0  0  0
  3 11  1  0  0  0  0
  3  4  2  0  0  0  0
  4  5  1  0  0  0  0
  5 10  2  0  0  0  0
  5  6  1  0  0  0  0
  6  7  2  0  0  0  0
  6 28  1  0  0  0  0
  7  8  1  0  0  0  0
  7 29  1  0  0  0  0
  8  9  2  0  0  0  0
  8 30  1  0  0  0  0
  9 10  1  0  0  0  0
  9 31  1  0  0  0  0
 10 11  1  0  0  0  0
 11 12  1  0  0  0  0
 12 13  1  0  0  0  0
 12 32  1  0  0  0  0
 12 33  1  0  0  0  0
 13 14  1  0  0  0  0
 13 15  1  0  0  0  0
 13 34  1  0  0  0  0
 14 35  1  0  0  0  0
 15 16  1  0  0  0  0
 15 36  1  0  0  0  0
 15 37  1  0  0  0  0
 16 17  1  0  0  0  0
 17 18  1  0  0  0  0
 17 38  1  0  0  0  0
 17 39  1  0  0  0  0
 18 23  1  0  0  0  0
 18 19  2  0  0  0  0
 19 20  1  0  0  0  0
 19 40  1  0  0  0  0
 20 21  2  0  0  0  0
 20 41  1  0  0  0  0
 21 22  1  0  0  0  0
 21 42  1  0  0  0  0
 22 23  2  0  0  0  0
 22 43  1  0  0  0  0
 23 24  1  0  0  0  0
M  END
> <s_m_source_file>
AV-unprocessed.smi

> <i_m_source_file_index>
1291

> <i_lp_mmshare_version>
43012

> <i_f3d_flags>
0

> <s_epik_input>
W2NIXTFbY0hdW2NIXVtjSF1jKGMxMiluKGMobjIpW0NIMl1bT0hdKVtDSDJdW0NASF0oW09IXSlbQ0gyXU9bQ0gyXWMzW2NIXVtjSF1bY0hdW2NIXWMzRg==

> <s_epik_cmdline>
J2VwaWtfcHl0aG9uJywgJy1waCcsICc3LjAnLCAnLXRuJywgJzgnLCAnLW1hJywgJzIwMCcsICctbWV0YWxfYmluZGluZycsICctaW1hZScsICc8aW5maWxlLm1hZT4nLCAnLW9tYWUnLCAnPG91dGZpbGUubWFlPic=

> <r_epik_Ionization_Penalty>
0.0649918

> <r_epik_Ionization_Penalty_Charging>
0

> <r_epik_Ionization_Penalty_Neutral>
0.0649918

> <r_epik_State_Penalty>
0.0565791

> <r_epik_Charging_Adjusted_Penalty>
0.0565791

> <i_epik_Tot_Q>
0

> <i_epik_Tot_abs_Q>
0

> <r_epik_Metal_State_Penalty>
5.93658e-05

> <b_epik_Metal_Only>
0

> <s_lp_Force_Field>
OPLS_2005

> <r_lp_Energy>
17.1818

> <b_lp_Chiralities_Consistent>
1

> <s_lp_Variant>
AV-unprocessed.smi:1291-2

> <Gold.Version>
5.8.1

> <Gold.Id.Protein>
6NUR|6NUR_protein|mol2

> <Gold.PLP.Fitness>
51.2151

> <Gold.PLP.PLP>
-47.6117

> <Gold.PLP.part.hbond>
-4.0000

> <Gold.PLP.part.metal>
0.0000

> <Gold.PLP.part.buried>
-7.1712

> <Gold.PLP.part.nonpolar>
-36.2402

> <Gold.PLP.part.repulsive>
0.0711

> <Gold.PLP.ligand.clash>
0.0000

> <Gold.PLP.ligand.torsion>
1.8559

> <Gold.PLP.Chemscore.Hbond>
2.3720

> <Gold.PLP.Chemscore.CHOScore>
0.0000

> <Gold.PLP.Chemscore.Metal>
0.0000

> <Gold.Chemscore.Hbonds>
donor molecule, donor type, donor heavy atom, donor atom, acceptor molecule, acceptor atom, score
      L1  H    14    35       P1  8028  0.70
      P1  H  7989  7998       L1     1  0.59
      P1  H  7997  8008       L1     4  1.00

> <Gold.PLP.Chemscore.Internal.Correction>
0.1993

> <Gold.Rescore>
     Score         DG    S(hbond)    S(metal)    S(lipo)     H(rot)  DE(clash)    DE(int)     intcor
     10.87     -12.85       1.02        0.00     106.68       3.33       0.06       1.92       ----

> <Gold.Chemscore.Fitness>
10.8704

> <Gold.Chemscore.DG>
-12.8496

> <Gold.Chemscore.ZeroCoef>
-5.4800

> <Gold.Chemscore.Hbond>
1.0229

> <Gold.Chemscore.Metal>
0.0000

> <Gold.Chemscore.Lipo>
106.6836

> <Gold.Chemscore.Internal_Hbond>
0.0000

> <Gold.Chemscore.DEClash>
0.0623

> <Gold.Chemscore.DEInternal>
1.9169

> <Gold.Chemscore.Rot>
3.3316

> <Gold.Chemscore.Internal.Correction>
   9.000000E+99

> <Gold.Chemscore.Hbonds>
donor molecule, donor type, donor heavy atom, donor atom, acceptor molecule, acceptor atom, score
      L1  H    14    35       P1  8028  0.07
      P1  H  7989  7998       L1     1  0.44
      P1  H  7997  8008       L1     4  0.23

> <Gold.Chemscore.Hbond.Weighted>
-3.4164

> <Gold.Chemscore.Metal.Weighted>
-0.0000

> <Gold.Chemscore.Lipo.Weighted>
-12.4820

> <Gold.Chemscore.Internal_Hbond.Weighted>
0.0000

> <Gold.Chemscore.DEClash.Weighted>
0.0623

> <Gold.Chemscore.DEInternal.Weighted>
1.9169

> <Gold.Chemscore.Rot.Weighted>
8.5288

> <Gold.Chemscore.Internal.Correction.Weighted>
   9.000000E+99

> <Gold.Protein.RotatedTorsions>
[ 6907 6896 6895 6894 ] final   60.13 input  -60.11 | X-H torsion
[ 7974 7965 7964 7962 ] final -179.33 input  175.53 | X-H torsion
[ 8008 7997 7996 7995 ] final  -87.51 input   59.86 | X-H torsion
[ 10167 10162 10161 10158 ] final  -41.80 input  -65.29 | X-H torsion
[ 10718 10713 10712 10709 ] final   64.68 input   66.30 | X-H torsion
[ 10763 10752 10751 10750 ] final   -6.33 input  -60.55 | X-H torsion
[ 11005 11000 10999 10996 ] final  -25.78 input  -57.11 | X-H torsion

> <Gold.Protein.ActiveResidues>
 VAL166  LYS551  ARG553  GLY616  TRP617  ASP618  TYR619  PRO620  LYS621  CYS622 
 ASP623  PHE694  ASN695  SER759  ASP760  ASP761  ALA762  ILE779  LEU786  VAL792 
 PHE793  MET794  SER795  GLU796  ALA797  LYS798  CYS799  TRP800  GLU811  SER814 

> <Gold.Protein.RotatedAtoms>
  152.3976  134.6340  160.0082 H   0  0  0  0  0  0  0  0  0  0  0  0  # atno 6907 bound_to 6896
  151.6555  133.3313  159.3169 H   0  0  0  0  0  0  0  0  0  0  0  0  # atno 6908 bound_to 6896
  150.7881  134.6926  159.6550 H   0  0  0  0  0  0  0  0  0  0  0  0  # atno 6909 bound_to 6896
  144.7136  140.0734  143.6428 H   0  0  0  0  0  0  0  0  0  0  0  0  # atno 7974 bound_to 7965
  154.6641  140.0565  157.0094 H   0  0  0  0  0  0  0  0  0  0  0  0  # atno 8008 bound_to 7997
  155.1185  140.3245  155.4484 H   0  0  0  0  0  0  0  0  0  0  0  0  # atno 8009 bound_to 7997
  156.2630  140.2001  156.6308 H   0  0  0  0  0  0  0  0  0  0  0  0  # atno 8010 bound_to 7997
  140.6990  143.3074  151.3118 H   0  0  0  0  0  0  0  0  0  0  0  0  # atno 10167 bound_to 10162
  157.6056  130.9173  149.9877 H   0  0  0  0  0  0  0  0  0  0  0  0  # atno 10718 bound_to 10713
  153.4108  135.7007  153.6360 H   0  0  0  0  0  0  0  0  0  0  0  0  # atno 10763 bound_to 10752
  153.4855  135.3684  155.2465 H   0  0  0  0  0  0  0  0  0  0  0  0  # atno 10764 bound_to 10752
  154.8717  135.4076  154.3460 H   0  0  0  0  0  0  0  0  0  0  0  0  # atno 10765 bound_to 10752
  140.8969  133.7550  156.0492 H   0  0  0  0  0  0  0  0  0  0  0  0  # atno 11005 bound_to 11000
  145.9764  139.2908  143.1068 LP  0  0  0  0  0  0  0  0  0  0  0  0  # atno 17320 bound_to 7965
  145.9060  140.9212  143.0478 LP  0  0  0  0  0  0  0  0  0  0  0  0  # atno 17321 bound_to 7965
  139.6484  144.0408  152.2608 LP  0  0  0  0  0  0  0  0  0  0  0  0  # atno 17342 bound_to 10162
  139.9936  144.6344  150.7792 LP  0  0  0  0  0  0  0  0  0  0  0  0  # atno 17343 bound_to 10162
  156.1141  130.3648  149.9998 LP  0  0  0  0  0  0  0  0  0  0  0  0  # atno 17370 bound_to 10713
  156.8091  130.9318  151.3644 LP  0  0  0  0  0  0  0  0  0  0  0  0  # atno 17371 bound_to 10713
  140.8278  134.3213  157.5359 LP  0  0  0  0  0  0  0  0  0  0  0  0  # atno 17394 bound_to 11000
  139.8737  134.9346  156.3612 LP  0  0  0  0  0  0  0  0  0  0  0  0  # atno 17395 bound_to 11000

$$$$
