AV-unprocessed.smi:1229|AV-procd|sdf|5151|dock8
  -GOLD-   22720 4223D 1   1.00000     0.00000
 Structure written by MMmdl.
 46 47  0  0  0  0  0  0  0  0  2 V2000
  151.9804  144.1377  158.2458 C   0  0  0  0  0  0  0  0  0  0  0  0
  152.4738  142.9241  159.0172 C   0  0  0  0  0  0  0  0  0  0  0  0
  153.3535  143.1087  160.1051 C   0  0  0  0  0  0  0  0  0  0  0  0
  153.8112  141.9859  160.8157 C   0  0  0  0  0  0  0  0  0  0  0  0
  153.3656  140.7176  160.4064 C   0  0  0  0  0  0  0  0  0  0  0  0
  152.5244  140.5320  159.3686 N   0  0  0  0  0  0  0  0  0  0  0  0
  152.0746  141.6053  158.6707 C   0  0  0  0  0  0  0  0  0  0  0  0
  151.1861  141.4840  157.5647 N   0  0  0  0  0  0  0  0  0  0  0  0
  151.3161  140.7152  156.4692 C   0  0  0  0  0  0  0  0  0  0  0  0
  152.2657  139.9691  156.2274 O   0  0  0  0  0  0  0  0  0  0  0  0
  150.2641  140.8530  155.6486 N   0  0  0  0  0  0  0  0  0  0  0  0
  150.1094  140.1672  154.3693 C   0  0  0  0  0  0  0  0  0  0  0  0
  149.2890  138.8667  154.5019 C   0  0  1  0  0  0  0  0  0  0  0  0
  148.6710  138.6081  153.2567 O   0  0  0  0  0  0  0  0  0  0  0  0
  150.1899  137.6606  154.8352 C   0  0  0  0  0  0  0  0  0  0  0  0
  149.5119  136.3607  154.5940 N   0  3  0  0  0  0  0  0  0  0  0  0
  150.3670  135.2013  154.9588 C   0  0  0  0  0  0  0  0  0  0  0  0
  149.7022  133.8723  154.5615 C   0  0  0  0  0  0  0  0  0  0  0  0
  148.3097  133.7429  155.1920 C   0  0  0  0  0  0  0  0  0  0  0  0
  147.4563  134.9657  154.8317 C   0  0  0  0  0  0  0  0  0  0  0  0
  148.1684  136.2702  155.2273 C   0  0  0  0  0  0  0  0  0  0  0  0
  152.3725  145.0629  158.6691 H   0  0  0  0  0  0  0  0  0  0  0  0
  150.8918  144.1927  158.2725 H   0  0  0  0  0  0  0  0  0  0  0  0
  152.3001  144.0831  157.2047 H   0  0  0  0  0  0  0  0  0  0  0  0
  153.6765  144.0982  160.3939 H   0  0  0  0  0  0  0  0  0  0  0  0
  154.4854  142.0938  161.6524 H   0  0  0  0  0  0  0  0  0  0  0  0
  153.6916  139.8285  160.9253 H   0  0  0  0  0  0  0  0  0  0  0  0
  150.3518  142.0490  157.6192 H   0  0  0  0  0  0  0  0  0  0  0  0
  149.5259  141.4865  155.9193 H   0  0  0  0  0  0  0  0  0  0  0  0
  149.6554  140.8455  153.6455 H   0  0  0  0  0  0  0  0  0  0  0  0
  151.1061  139.9433  153.9844 H   0  0  0  0  0  0  0  0  0  0  0  0
  148.5197  138.9837  155.2642 H   0  0  0  0  0  0  0  0  0  0  0  0
  148.9396  139.2764  152.6441 H   0  0  0  0  0  0  0  0  0  0  0  0
  151.0957  137.7284  154.2299 H   0  0  0  0  0  0  0  0  0  0  0  0
  150.5187  137.7012  155.8750 H   0  0  0  0  0  0  0  0  0  0  0  0
  151.3307  135.2804  154.4540 H   0  0  0  0  0  0  0  0  0  0  0  0
  150.5670  135.2185  156.0313 H   0  0  0  0  0  0  0  0  0  0  0  0
  149.6196  133.8145  153.4751 H   0  0  0  0  0  0  0  0  0  0  0  0
  150.3293  133.0348  154.8687 H   0  0  0  0  0  0  0  0  0  0  0  0
  147.8234  132.8285  154.8507 H   0  0  0  0  0  0  0  0  0  0  0  0
  148.4012  133.6629  156.2761 H   0  0  0  0  0  0  0  0  0  0  0  0
  147.2537  134.9692  153.7597 H   0  0  0  0  0  0  0  0  0  0  0  0
  146.4880  134.9034  155.3294 H   0  0  0  0  0  0  0  0  0  0  0  0
  148.2717  136.3247  156.3123 H   0  0  0  0  0  0  0  0  0  0  0  0
  147.5474  137.1142  154.9298 H   0  0  0  0  0  0  0  0  0  0  0  0
  149.3727  136.3022  153.5950 H   0  0  0  0  0  0  0  0  0  0  0  0
  1  2  1  0  0  0  0
  1 22  1  0  0  0  0
  1 23  1  0  0  0  0
  1 24  1  0  0  0  0
  2  7  1  0  0  0  0
  2  3  2  0  0  0  0
  3  4  1  0  0  0  0
  3 25  1  0  0  0  0
  4  5  2  0  0  0  0
  4 26  1  0  0  0  0
  5  6  1  0  0  0  0
  5 27  1  0  0  0  0
  6  7  2  0  0  0  0
  7  8  1  0  0  0  0
  8  9  1  0  0  0  0
  8 28  1  0  0  0  0
  9 10  2  0  0  0  0
  9 11  1  0  0  0  0
 11 12  1  0  0  0  0
 11 29  1  0  0  0  0
 12 13  1  0  0  0  0
 12 30  1  0  0  0  0
 12 31  1  0  0  0  0
 13 14  1  0  0  0  0
 13 15  1  0  0  0  0
 13 32  1  0  0  0  0
 14 33  1  0  0  0  0
 15 16  1  0  0  0  0
 15 34  1  0  0  0  0
 15 35  1  0  0  0  0
 16 21  1  0  0  0  0
 16 17  1  0  0  0  0
 16 46  1  0  0  0  0
 17 18  1  0  0  0  0
 17 36  1  0  0  0  0
 17 37  1  0  0  0  0
 18 19  1  0  0  0  0
 18 38  1  0  0  0  0
 18 39  1  0  0  0  0
 19 20  1  0  0  0  0
 19 40  1  0  0  0  0
 19 41  1  0  0  0  0
 20 21  1  0  0  0  0
 20 42  1  0  0  0  0
 20 43  1  0  0  0  0
 21 44  1  0  0  0  0
 21 45  1  0  0  0  0
M  CHG  1  16   1
M  END
> <s_m_source_file>
AV-unprocessed.smi

> <i_m_source_file_index>
1229

> <i_lp_mmshare_version>
43012

> <i_f3d_flags>
0

> <s_epik_input>
W0NIM11jMVtjSF1bY0hdW2NIXW5jMVtOSF1DKD1PKVtOSF1bQ0gyXVtDQEhdKFtPSF0pW0NIMl1OMltDSDJdW0NIMl1bQ0gyXVtDSDJdW0NIMl0y

> <s_epik_cmdline>
J2VwaWtfcHl0aG9uJywgJy1waCcsICc3LjAnLCAnLXRuJywgJzgnLCAnLW1hJywgJzIwMCcsICctbWV0YWxfYmluZGluZycsICctaW1hZScsICc8aW5maWxlLm1hZT4nLCAnLW9tYWUnLCAnPG91dGZpbGUubWFlPic=

> <r_epik_Ionization_Penalty>
0.00511007

> <r_epik_Ionization_Penalty_Charging>
0.00506051

> <r_epik_Ionization_Penalty_Neutral>
4.95577e-05

> <r_epik_State_Penalty>
0.00368188

> <r_epik_Charging_Adjusted_Penalty>
0.0087424

> <i_epik_Tot_Q>
1

> <i_epik_Tot_abs_Q>
1

> <r_epik_Metal_State_Penalty>
-0

> <b_epik_Metal_Only>
0

> <s_lp_Force_Field>
OPLS_2005

> <r_lp_Energy>
20.718

> <b_lp_Chiralities_Consistent>
1

> <s_lp_Variant>
AV-unprocessed.smi:1229-2

> <Gold.Version>
5.8.1

> <Gold.Id.Protein>
6NUR|6NUR_protein|mol2

> <Gold.PLP.Fitness>
48.9100

> <Gold.PLP.PLP>
-39.0614

> <Gold.PLP.part.hbond>
-4.0000

> <Gold.PLP.part.metal>
0.0000

> <Gold.PLP.part.buried>
-2.3215

> <Gold.PLP.part.nonpolar>
-33.3186

> <Gold.PLP.part.repulsive>
0.2115

> <Gold.PLP.ligand.clash>
0.0000

> <Gold.PLP.ligand.torsion>
1.1138

> <Gold.PLP.Chemscore.Hbond>
4.0000

> <Gold.PLP.Chemscore.CHOScore>
0.0000

> <Gold.PLP.Chemscore.Metal>
0.0000

> <Gold.Chemscore.Hbonds>
donor molecule, donor type, donor heavy atom, donor atom, acceptor molecule, acceptor atom, score
      L1  H    14    33       P1  7957  1.00
      L1  H    16    46       P1  7948  2.00
      P1  H  7997  8008       L1    10  0.88

> <Gold.PLP.Chemscore.Internal.Correction>
0.0762

> <Gold.Rescore>
     Score         DG    S(hbond)    S(metal)    S(lipo)     H(rot)  DE(clash)    DE(int)     intcor
     18.42     -20.28       2.90        0.00      94.19       2.31       0.82       1.03       ----

> <Gold.Chemscore.Fitness>
18.4209

> <Gold.Chemscore.DG>
-20.2758

> <Gold.Chemscore.ZeroCoef>
-5.4800

> <Gold.Chemscore.Hbond>
2.9004

> <Gold.Chemscore.Metal>
0.0000

> <Gold.Chemscore.Lipo>
94.1949

> <Gold.Chemscore.Internal_Hbond>
0.0000

> <Gold.Chemscore.DEClash>
0.8220

> <Gold.Chemscore.DEInternal>
1.0328

> <Gold.Chemscore.Rot>
2.3095

> <Gold.Chemscore.Internal.Correction>
   9.000000E+99

> <Gold.Chemscore.Hbonds>
donor molecule, donor type, donor heavy atom, donor atom, acceptor molecule, acceptor atom, score
      L1  H    14    33       P1  7957  0.99
      L1  H    16    46       P1  7948  0.78
      P1  H  7997  8008       L1    10  0.85

> <Gold.Chemscore.Hbond.Weighted>
-9.6875

> <Gold.Chemscore.Metal.Weighted>
-0.0000

> <Gold.Chemscore.Lipo.Weighted>
-11.0208

> <Gold.Chemscore.Internal_Hbond.Weighted>
0.0000

> <Gold.Chemscore.DEClash.Weighted>
0.8220

> <Gold.Chemscore.DEInternal.Weighted>
1.0328

> <Gold.Chemscore.Rot.Weighted>
5.9124

> <Gold.Chemscore.Internal.Correction.Weighted>
   9.000000E+99

> <Gold.Protein.RotatedTorsions>
[ 6907 6896 6895 6894 ] final  108.20 input  -60.11 | X-H torsion
[ 7974 7965 7964 7962 ] final   68.03 input  175.53 | X-H torsion
[ 8008 7997 7996 7995 ] final  -45.15 input   59.86 | X-H torsion
[ 10167 10162 10161 10158 ] final -139.95 input  -65.29 | X-H torsion
[ 10718 10713 10712 10709 ] final -118.62 input   66.30 | X-H torsion
[ 10763 10752 10751 10750 ] final   17.17 input  -60.55 | X-H torsion
[ 11005 11000 10999 10996 ] final  -12.97 input  -57.11 | X-H torsion

> <Gold.Protein.ActiveResidues>
 VAL166  LYS551  ARG553  GLY616  TRP617  ASP618  TYR619  PRO620  LYS621  CYS622 
 ASP623  PHE694  ASN695  SER759  ASP760  ASP761  ALA762  ILE779  LEU786  VAL792 
 PHE793  MET794  SER795  GLU796  ALA797  LYS798  CYS799  TRP800  GLU811  SER814 

> <Gold.Protein.RotatedAtoms>
  152.5122  133.9123  159.7493 H   0  0  0  0  0  0  0  0  0  0  0  0  # atno 6907 bound_to 6896
  150.9514  133.6537  159.2778 H   0  0  0  0  0  0  0  0  0  0  0  0  # atno 6908 bound_to 6896
  151.3814  135.0945  159.9550 H   0  0  0  0  0  0  0  0  0  0  0  0  # atno 6909 bound_to 6896
  145.8075  139.3015  143.1118 H   0  0  0  0  0  0  0  0  0  0  0  0  # atno 7974 bound_to 7965
  154.4000  140.1404  156.3800 H   0  0  0  0  0  0  0  0  0  0  0  0  # atno 8008 bound_to 7997
  155.8012  140.3476  155.5383 H   0  0  0  0  0  0  0  0  0  0  0  0  # atno 8009 bound_to 7997
  155.8481  140.0937  157.1682 H   0  0  0  0  0  0  0  0  0  0  0  0  # atno 8010 bound_to 7997
  139.8329  143.7423  152.2665 H   0  0  0  0  0  0  0  0  0  0  0  0  # atno 10167 bound_to 10162
  156.1120  130.6256  150.9314 H   0  0  0  0  0  0  0  0  0  0  0  0  # atno 10718 bound_to 10713
  153.1363  135.6751  153.9097 H   0  0  0  0  0  0  0  0  0  0  0  0  # atno 10763 bound_to 10752
  153.8567  135.3086  155.3437 H   0  0  0  0  0  0  0  0  0  0  0  0  # atno 10764 bound_to 10752
  154.7751  135.4919  153.9809 H   0  0  0  0  0  0  0  0  0  0  0  0  # atno 10765 bound_to 10752
  140.7713  133.8436  155.9209 H   0  0  0  0  0  0  0  0  0  0  0  0  # atno 11005 bound_to 11000
  145.9812  140.8681  143.0113 LP  0  0  0  0  0  0  0  0  0  0  0  0  # atno 17320 bound_to 7965
  144.6761  140.2083  143.7380 LP  0  0  0  0  0  0  0  0  0  0  0  0  # atno 17321 bound_to 7965
  139.7636  144.7499  151.0327 LP  0  0  0  0  0  0  0  0  0  0  0  0  # atno 17342 bound_to 10162
  140.7805  143.4723  151.0130 LP  0  0  0  0  0  0  0  0  0  0  0  0  # atno 17343 bound_to 10162
  157.6301  131.0922  150.8457 LP  0  0  0  0  0  0  0  0  0  0  0  0  # atno 17370 bound_to 10713
  156.8566  130.5099  149.5307 LP  0  0  0  0  0  0  0  0  0  0  0  0  # atno 17371 bound_to 10713
  140.9571  134.1703  157.4683 LP  0  0  0  0  0  0  0  0  0  0  0  0  # atno 17394 bound_to 11000
  139.8755  134.9931  156.5628 LP  0  0  0  0  0  0  0  0  0  0  0  0  # atno 17395 bound_to 11000

$$$$
