#       Name:                AV-unprocessed.smi:1381
#       Creating user name   scv26
#       Creation time:       Fri Mar 27 05:23:17 2020


#       File generated by GOLD software.
#

@<TRIPOS>MOLECULE
AV-unprocessed.smi:1381
    50    51     1
SMALL
NO_CHARGES


@<TRIPOS>ATOM
      1 ****        -7.3776   2.7391  -0.6353 C.3            1 S1                 0.0000
      2 ****        -6.1506   1.9465  -0.9299 C.2            1 S1                 0.0000
      3 ****        -4.8180   2.1967  -0.7602 C.2            1 S1                 0.0000
      4 ****        -4.2037   1.0160  -1.2566 C.2            1 S1                 0.0000
      5 ****        -2.7902   0.8802  -1.2539 N.am           1 S1                 0.0000
      6 ****        -2.0397  -0.1380  -1.7134 C.2            1 S1                 0.0000
      7 ****        -2.5754  -1.1274  -2.2265 O.2            1 S1                 0.0000
      8 ****        -0.7088   0.0842  -1.5343 N.pl3          1 S1                -1.0000
      9 ****         0.3531  -0.8251  -1.9677 C.3            1 S1                 0.0000
     10 ****         1.6484  -0.5202  -1.1933 C.3            1 S1                 0.0000
     11 ****         1.4898  -0.7776   0.2655 N.4            1 S1                 1.0000
     12 ****         2.0839  -2.0545   0.7383 C.3            1 S1                 0.0000
     13 ****         3.6152  -1.9359   0.8985 C.3            1 S1                 0.0000
     14 ****         4.2312  -3.2043   1.4993 C.3            1 S1                 0.0000
     15 ****         3.9139  -0.8444   1.7633 O.3            1 S1                 0.0000
     16 ****         3.4490   0.4036   1.2587 C.3            1 S1                 0.0000
     17 ****         3.9085   1.5076   2.2175 C.3            1 S1                 0.0000
     18 ****         1.9138   0.3487   1.1322 C.3            1 S1                 0.0000
     19 ****        -5.0839   0.1242  -1.6869 N.2            1 S1                 0.0000
     20 ****        -6.3356   0.7162  -1.4806 O.3            1 S1                 0.0000
     21 ****        -7.1248   3.6891  -0.1641 H              1 S1                 0.0000
     22 ****        -8.0376   2.1925   0.0384 H              1 S1                 0.0000
     23 ****        -7.9283   2.9521  -1.5515 H              1 S1                 0.0000
     24 ****        -4.3583   3.0830  -0.3490 H              1 S1                 0.0000
     25 ****        -2.2802   1.6567  -0.8602 H              1 S1                 0.0000
     26 ****         0.0924  -1.8728  -1.8127 H              1 S1                 0.0000
     27 ****         0.5510  -0.7220  -3.0347 H              1 S1                 0.0000
     28 ****         2.4642  -1.1176  -1.6008 H              1 S1                 0.0000
     29 ****         1.9294   0.5190  -1.3726 H              1 S1                 0.0000
     30 ****         1.6338  -2.3012   1.7009 H              1 S1                 0.0000
     31 ****         1.8245  -2.8683   0.0596 H              1 S1                 0.0000
     32 ****         4.0829  -1.7579  -0.0710 H              1 S1                 0.0000
     33 ****         4.0388  -4.0714   0.8668 H              1 S1                 0.0000
     34 ****         3.8213  -3.4135   2.4880 H              1 S1                 0.0000
     35 ****         5.3119  -3.1018   1.6017 H              1 S1                 0.0000
     36 ****         3.8989   0.5871   0.2815 H              1 S1                 0.0000
     37 ****         3.5850   2.4890   1.8696 H              1 S1                 0.0000
     38 ****         4.9957   1.5260   2.2989 H              1 S1                 0.0000
     39 ****         3.5028   1.3563   3.2183 H              1 S1                 0.0000
     40 ****         1.5144   1.2900   0.7517 H              1 S1                 0.0000
     41 ****         1.4697   0.2049   2.1181 H              1 S1                 0.0000
     42 ****         0.4893  -0.8569   0.3883 H              1 S1                 0.0000
     43 ****        -3.5715  -1.1739  -2.3018 LP             1 S1                 0.0000
     44 ****        -2.0125  -1.8809  -2.5662 LP             1 S1                 0.0000
     45 ****        -0.4371   0.9292  -1.0736 LP             1 S1                 0.0000
     46 ****         4.9056  -0.7920   1.8806 LP             1 S1                 0.0000
     47 ****         3.4818  -1.0115   2.6495 LP             1 S1                 0.0000
     48 ****        -4.8949  -0.7776  -2.0754 LP             1 S1                 0.0000
     49 ****        -6.8131   0.8071  -2.3545 LP             1 S1                 0.0000
     50 ****        -6.8784   0.1486  -0.8616 LP             1 S1                 0.0000
@<TRIPOS>BOND
    1    1    2 1     
    2    1   21 1     
    3    1   22 1     
    4    1   23 1     
    5    2   20 1     
    6    2    3 2     
    7    3    4 1     
    8    3   24 1     
    9    4    5 1     
   10    4   19 2     
   11    5    6 am    
   12    5   25 1     
   13    6    7 2     
   14    6    8 1     
   15    8    9 1     
   16    9   10 1     
   17    9   26 1     
   18    9   27 1     
   19   10   11 1     
   20   10   28 1     
   21   10   29 1     
   22   11   18 1     
   23   11   12 1     
   24   11   42 1     
   25   12   13 1     
   26   12   30 1     
   27   12   31 1     
   28   13   14 1     
   29   13   15 1     
   30   13   32 1     
   31   14   33 1     
   32   14   34 1     
   33   14   35 1     
   34   15   16 1     
   35   16   17 1     
   36   16   18 1     
   37   16   36 1     
   38   17   37 1     
   39   17   38 1     
   40   17   39 1     
   41   18   40 1     
   42   18   41 1     
   43   19   20 1     
   44    7   43 1     
   45    7   44 1     
   46    8   45 1     
   47   15   46 1     
   48   15   47 1     
   49   19   48 1     
   50   20   49 1     
   51   20   50 1     
@<TRIPOS>SUBSTRUCTURE
      1 S1             1
@<TRIPOS>SET
LONE_PAIRS      STATIC     ATOMS    <user>   **** ""
8 43 44 45 46 47 48 49 50
DONOR_HYDROGENS      STATIC     ATOMS    <user>   **** ""
2 25 42
ATOM$BLUE        STATIC     ATOMS    COLORGROUP SYSTEM
8 43 44 45 46 47 48 49 50
ATOM$RED        STATIC     ATOMS    COLORGROUP SYSTEM
2 25 42
