AV-unprocessed.smi:1404|AV-procd|sdf|5706|dock4
  -GOLD-   22720 5333D 1   1.00000     0.00000
 Structure written by MMmdl.
 48 49  0  0  0  0  0  0  0  0  2 V2000
  150.9976  140.9298  157.5374 C   0  0  0  0  0  0  0  0  0  0  0  0
  150.8135  139.9380  156.4983 N   0  0  0  0  0  0  0  0  0  0  0  0
  151.6581  138.8017  156.4711 C   0  0  0  0  0  0  0  0  0  0  0  0
  152.5467  138.6135  157.3025 O   0  0  0  0  0  0  0  0  0  0  0  0
  151.3911  137.8783  155.3746 C   0  0  0  0  0  0  0  0  0  0  0  0
  150.4124  138.1289  154.4777 C   0  0  0  0  0  0  0  0  0  0  0  0
  149.6059  139.2513  154.5235 N   0  0  0  0  0  0  0  0  0  0  0  0
  148.5750  139.4527  153.4980 C   0  0  0  0  0  0  0  0  0  0  0  0
  147.2401  138.8026  153.8802 C   0  0  0  0  0  0  0  0  0  0  0  0
  146.4582  139.3818  154.6350 O   0  0  0  0  0  0  0  0  0  0  0  0
  146.9944  137.5961  153.3474 N   0  0  0  0  0  0  0  0  0  0  0  0
  145.8167  136.7702  153.6113 C   0  0  0  0  0  0  0  0  0  0  0  0
  145.8600  135.3645  152.9335 C   0  0  0  0  0  0  0  0  0  0  0  0
  144.5358  134.6339  153.2815 C   0  0  0  0  0  0  0  0  0  0  0  0
  145.9327  135.4932  151.3913 C   0  0  0  0  0  0  0  0  0  0  0  0
  147.0548  134.6131  153.4711 N   0  3  0  0  0  0  0  0  0  0  0  0
  147.3509  134.7908  154.9221 C   0  0  0  0  0  0  0  0  0  0  0  0
  148.6685  134.0929  155.3043 C   0  0  0  0  0  0  0  0  0  0  0  0
  148.6158  132.7178  154.9545 O   0  0  0  0  0  0  0  0  0  0  0  0
  148.4391  132.5418  153.5569 C   0  0  0  0  0  0  0  0  0  0  0  0
  147.0978  133.1605  153.1346 C   0  0  0  0  0  0  0  0  0  0  0  0
  149.7965  140.1976  155.5536 C   0  0  0  0  0  0  0  0  0  0  0  0
  149.0978  141.2131  155.6137 O   0  0  0  0  0  0  0  0  0  0  0  0
  151.7009  140.5839  158.2940 H   0  0  0  0  0  0  0  0  0  0  0  0
  150.0269  141.1019  158.0061 H   0  0  0  0  0  0  0  0  0  0  0  0
  151.3725  141.8331  157.0531 H   0  0  0  0  0  0  0  0  0  0  0  0
  151.9872  136.9826  155.2780 H   0  0  0  0  0  0  0  0  0  0  0  0
  150.2579  137.4150  153.6815 H   0  0  0  0  0  0  0  0  0  0  0  0
  148.4024  140.5182  153.3402 H   0  0  0  0  0  0  0  0  0  0  0  0
  148.9256  139.0643  152.5395 H   0  0  0  0  0  0  0  0  0  0  0  0
  147.6940  137.2048  152.7328 H   0  0  0  0  0  0  0  0  0  0  0  0
  145.6808  136.6983  154.6892 H   0  0  0  0  0  0  0  0  0  0  0  0
  144.9497  137.3219  153.2459 H   0  0  0  0  0  0  0  0  0  0  0  0
  143.6595  135.2109  152.9856 H   0  0  0  0  0  0  0  0  0  0  0  0
  144.4518  134.4452  154.3522 H   0  0  0  0  0  0  0  0  0  0  0  0
  144.4408  133.6816  152.7596 H   0  0  0  0  0  0  0  0  0  0  0  0
  145.0115  135.9072  150.9808 H   0  0  0  0  0  0  0  0  0  0  0  0
  146.0802  134.5259  150.9113 H   0  0  0  0  0  0  0  0  0  0  0  0
  146.7410  136.1510  151.0720 H   0  0  0  0  0  0  0  0  0  0  0  0
  147.4670  135.8411  155.1829 H   0  0  0  0  0  0  0  0  0  0  0  0
  146.5308  134.3942  155.5218 H   0  0  0  0  0  0  0  0  0  0  0  0
  149.5171  134.5714  154.8126 H   0  0  0  0  0  0  0  0  0  0  0  0
  148.8382  134.1756  156.3781 H   0  0  0  0  0  0  0  0  0  0  0  0
  149.2693  132.9883  153.0074 H   0  0  0  0  0  0  0  0  0  0  0  0
  148.4465  131.4745  153.3342 H   0  0  0  0  0  0  0  0  0  0  0  0
  146.2929  132.6317  153.6464 H   0  0  0  0  0  0  0  0  0  0  0  0
  146.9631  132.9878  152.0694 H   0  0  0  0  0  0  0  0  0  0  0  0
  147.8468  135.0241  152.9978 H   0  0  0  0  0  0  0  0  0  0  0  0
  1  2  1  0  0  0  0
  1 24  1  0  0  0  0
  1 25  1  0  0  0  0
  1 26  1  0  0  0  0
  2 22  1  0  0  0  0
  2  3  1  0  0  0  0
  3  4  2  0  0  0  0
  3  5  1  0  0  0  0
  5  6  2  0  0  0  0
  5 27  1  0  0  0  0
  6  7  1  0  0  0  0
  6 28  1  0  0  0  0
  7  8  1  0  0  0  0
  7 22  1  0  0  0  0
  8  9  1  0  0  0  0
  8 29  1  0  0  0  0
  8 30  1  0  0  0  0
  9 10  2  0  0  0  0
  9 11  1  0  0  0  0
 11 12  1  0  0  0  0
 11 31  1  0  0  0  0
 12 13  1  0  0  0  0
 12 32  1  0  0  0  0
 12 33  1  0  0  0  0
 13 14  1  0  0  0  0
 13 15  1  0  0  0  0
 13 16  1  0  0  0  0
 14 34  1  0  0  0  0
 14 35  1  0  0  0  0
 14 36  1  0  0  0  0
 15 37  1  0  0  0  0
 15 38  1  0  0  0  0
 15 39  1  0  0  0  0
 16 21  1  0  0  0  0
 16 17  1  0  0  0  0
 16 48  1  0  0  0  0
 17 18  1  0  0  0  0
 17 40  1  0  0  0  0
 17 41  1  0  0  0  0
 18 19  1  0  0  0  0
 18 42  1  0  0  0  0
 18 43  1  0  0  0  0
 19 20  1  0  0  0  0
 20 21  1  0  0  0  0
 20 44  1  0  0  0  0
 20 45  1  0  0  0  0
 21 46  1  0  0  0  0
 21 47  1  0  0  0  0
 22 23  2  0  0  0  0
M  CHG  1  16   1
M  END
> <s_m_source_file>
AV-unprocessed.smi

> <i_m_source_file_index>
1404

> <i_lp_mmshare_version>
43012

> <i_f3d_flags>
0

> <s_epik_input>
W0NIM11uMWMoPU8pW2NIXVtjSF1uKGMxPU8pW0NIMl1DKD1PKVtOSF1bQ0gyXUMoW0NIM10pKFtDSDNdKU4yW0NIMl1bQ0gyXU9bQ0gyXVtDSDJdMg==

> <s_epik_cmdline>
J2VwaWtfcHl0aG9uJywgJy1waCcsICc3LjAnLCAnLXRuJywgJzgnLCAnLW1hJywgJzIwMCcsICctbWV0YWxfYmluZGluZycsICctaW1hZScsICc8aW5maWxlLm1hZT4nLCAnLW9tYWUnLCAnPG91dGZpbGUubWFlPic=

> <r_lp_tautomer_probability>
1

> <r_epik_Ionization_Penalty>
0.656654

> <r_epik_Ionization_Penalty_Charging>
0.656653

> <r_epik_Ionization_Penalty_Neutral>
9.12373e-08

> <r_epik_State_Penalty>
0.675641

> <r_epik_Charging_Adjusted_Penalty>
1.33229

> <i_epik_Tot_Q>
1

> <i_epik_Tot_abs_Q>
1

> <r_epik_Metal_State_Penalty>
0.675694

> <b_epik_Metal_Only>
0

> <s_lp_Force_Field>
OPLS_2005

> <r_lp_Energy>
33.2005

> <b_lp_Chiralities_Consistent>
1

> <s_lp_Variant>
AV-unprocessed.smi:1404-2

> <Gold.Version>
5.8.1

> <Gold.Id.Protein>
6NUR|6NUR_protein|mol2

> <Gold.PLP.Fitness>
47.3545

> <Gold.PLP.PLP>
-34.0237

> <Gold.PLP.part.hbond>
-2.8692

> <Gold.PLP.part.metal>
0.0000

> <Gold.PLP.part.buried>
-1.0429

> <Gold.PLP.part.nonpolar>
-29.8001

> <Gold.PLP.part.repulsive>
0.2109

> <Gold.PLP.ligand.clash>
0.0000

> <Gold.PLP.ligand.torsion>
1.0601

> <Gold.PLP.Chemscore.Hbond>
4.0000

> <Gold.PLP.Chemscore.CHOScore>
1.1030

> <Gold.PLP.Chemscore.Metal>
0.0000

> <Gold.Chemscore.Hbonds>
donor molecule, donor type, donor heavy atom, donor atom, acceptor molecule, acceptor atom, score
      L1  H    11    31       P1  7948  1.00
      L1  H    16    48       P1  7948  2.00
      L1  C     6    28       P1  7948  0.99
      L1  C     6    28       P1  7949  0.14

> <Gold.PLP.Chemscore.Internal.Correction>
0.1422

> <Gold.Rescore>
     Score         DG    S(hbond)    S(metal)    S(lipo)     H(rot)  DE(clash)    DE(int)     intcor
     14.66     -16.85       2.97        0.00      59.30       2.14       1.50       0.68       ----

> <Gold.Chemscore.Fitness>
14.6619

> <Gold.Chemscore.DG>
-16.8495

> <Gold.Chemscore.ZeroCoef>
-5.4800

> <Gold.Chemscore.Hbond>
2.9656

> <Gold.Chemscore.Metal>
0.0000

> <Gold.Chemscore.Lipo>
59.2996

> <Gold.Chemscore.Internal_Hbond>
0.0000

> <Gold.Chemscore.DEClash>
1.5041

> <Gold.Chemscore.DEInternal>
0.6836

> <Gold.Chemscore.Rot>
2.1381

> <Gold.Chemscore.Internal.Correction>
   9.000000E+99

> <Gold.Chemscore.Hbonds>
donor molecule, donor type, donor heavy atom, donor atom, acceptor molecule, acceptor atom, score
      L1  H    11    31       P1  7948  1.00
      L1  H    16    48       P1  7948  0.97

> <Gold.Chemscore.Hbond.Weighted>
-9.9049

> <Gold.Chemscore.Metal.Weighted>
-0.0000

> <Gold.Chemscore.Lipo.Weighted>
-6.9381

> <Gold.Chemscore.Internal_Hbond.Weighted>
0.0000

> <Gold.Chemscore.DEClash.Weighted>
1.5041

> <Gold.Chemscore.DEInternal.Weighted>
0.6836

> <Gold.Chemscore.Rot.Weighted>
5.4735

> <Gold.Chemscore.Internal.Correction.Weighted>
   9.000000E+99

> <Gold.Protein.RotatedTorsions>
[ 6907 6896 6895 6894 ] final  126.05 input  -60.11 | X-H torsion
[ 7974 7965 7964 7962 ] final  127.99 input  175.53 | X-H torsion
[ 8008 7997 7996 7995 ] final  -46.32 input   59.86 | X-H torsion
[ 10167 10162 10161 10158 ] final  -54.40 input  -65.29 | X-H torsion
[ 10718 10713 10712 10709 ] final  143.41 input   66.30 | X-H torsion
[ 10763 10752 10751 10750 ] final  135.36 input  -60.55 | X-H torsion
[ 11005 11000 10999 10996 ] final  -39.31 input  -57.11 | X-H torsion

> <Gold.Protein.ActiveResidues>
 VAL166  LYS551  ARG553  GLY616  TRP617  ASP618  TYR619  PRO620  LYS621  CYS622 
 ASP623  PHE694  ASN695  SER759  ASP760  ASP761  ALA762  ILE779  LEU786  VAL792 
 PHE793  MET794  SER795  GLU796  ALA797  LYS798  CYS799  TRP800  GLU811  SER814 

> <Gold.Protein.RotatedAtoms>
  152.3938  133.6717  159.6259 H   0  0  0  0  0  0  0  0  0  0  0  0  # atno 6907 bound_to 6896
  150.7841  133.8909  159.3322 H   0  0  0  0  0  0  0  0  0  0  0  0  # atno 6908 bound_to 6896
  151.6690  135.0980  160.0245 H   0  0  0  0  0  0  0  0  0  0  0  0  # atno 6909 bound_to 6896
  145.0445  139.3935  143.5085 H   0  0  0  0  0  0  0  0  0  0  0  0  # atno 7974 bound_to 7965
  154.4006  140.1374  156.3992 H   0  0  0  0  0  0  0  0  0  0  0  0  # atno 8008 bound_to 7997
  155.7840  140.3480  155.5292 H   0  0  0  0  0  0  0  0  0  0  0  0  # atno 8009 bound_to 7997
  155.8645  140.0962  157.1581 H   0  0  0  0  0  0  0  0  0  0  0  0  # atno 8010 bound_to 7997
  140.6433  143.2520  151.4930 H   0  0  0  0  0  0  0  0  0  0  0  0  # atno 10167 bound_to 10162
  157.3693  131.0976  151.0843 H   0  0  0  0  0  0  0  0  0  0  0  0  # atno 10718 bound_to 10713
  153.8387  135.3094  155.3424 H   0  0  0  0  0  0  0  0  0  0  0  0  # atno 10763 bound_to 10752
  154.7942  135.4765  154.0125 H   0  0  0  0  0  0  0  0  0  0  0  0  # atno 10764 bound_to 10752
  153.1589  135.6857  153.8863 H   0  0  0  0  0  0  0  0  0  0  0  0  # atno 10765 bound_to 10752
  141.0092  133.6916  156.2169 H   0  0  0  0  0  0  0  0  0  0  0  0  # atno 11005 bound_to 11000
  146.3512  140.0063  142.8671 LP  0  0  0  0  0  0  0  0  0  0  0  0  # atno 17320 bound_to 7965
  145.1606  140.9670  143.4379 LP  0  0  0  0  0  0  0  0  0  0  0  0  # atno 17321 bound_to 7965
  139.5642  144.2082  152.1739 LP  0  0  0  0  0  0  0  0  0  0  0  0  # atno 17342 bound_to 10162
  140.1359  144.5246  150.6774 LP  0  0  0  0  0  0  0  0  0  0  0  0  # atno 17343 bound_to 10162
  157.1954  130.6370  149.5719 LP  0  0  0  0  0  0  0  0  0  0  0  0  # atno 17370 bound_to 10713
  155.9752  130.4708  150.6444 LP  0  0  0  0  0  0  0  0  0  0  0  0  # atno 17371 bound_to 10713
  140.6762  134.4816  157.5588 LP  0  0  0  0  0  0  0  0  0  0  0  0  # atno 17394 bound_to 11000
  139.9080  134.8406  156.1632 LP  0  0  0  0  0  0  0  0  0  0  0  0  # atno 17395 bound_to 11000

$$$$
