AV-unprocessed.smi:1425|AV-procd|sdf|5804|dock7
  -GOLD-   22720 5453D 1   1.00000     0.00000
 Structure written by MMmdl.
 36 37  0  0  0  0  0  0  0  0  1 V2000
  145.9027  134.6904  151.3433 C   0  0  0  0  0  0  0  0  0  0  0  0
  146.1007  133.2172  151.6618 C   0  0  0  0  0  0  0  0  0  0  0  0
  145.1447  132.2801  151.2154 C   0  0  0  0  0  0  0  0  0  0  0  0
  145.3287  130.9187  151.5112 C   0  0  0  0  0  0  0  0  0  0  0  0
  146.4684  130.5496  152.2460 C   0  0  0  0  0  0  0  0  0  0  0  0
  147.3871  131.4385  152.6764 N   0  0  0  0  0  0  0  0  0  0  0  0
  147.2244  132.7568  152.3992 C   0  0  0  0  0  0  0  0  0  0  0  0
  148.1480  133.7524  152.8257 N   0  0  0  0  0  0  0  0  0  0  0  0
  149.1243  133.6517  153.7449 C   0  0  0  0  0  0  0  0  0  0  0  0
  149.4134  132.6313  154.3705 O   0  0  0  0  0  0  0  0  0  0  0  0
  149.7633  134.8208  153.8987 N   0  0  0  0  0  0  0  0  0  0  0  0
  150.8693  135.0701  154.8185 C   0  0  0  0  0  0  0  0  0  0  0  0
  150.9954  136.5638  155.1732 C   0  0  1  0  0  0  0  0  0  0  0  0
  152.0075  136.8107  156.3090 C   0  0  0  0  0  0  0  0  0  0  0  0
  152.2628  138.3170  156.4198 C   0  0  0  0  0  0  0  0  0  0  0  0
  152.1587  138.9604  154.7086 S   0  0  0  0  0  0  0  0  0  0  0  0
  151.1898  140.0663  154.6720 O   0  0  0  0  0  0  0  0  0  0  0  0
  153.5144  139.1228  154.1625 O   0  0  0  0  0  0  0  0  0  0  0  0
  151.4021  137.4547  153.9860 C   0  0  0  0  0  0  0  0  0  0  0  0
  144.9914  134.8535  150.7675 H   0  0  0  0  0  0  0  0  0  0  0  0
  146.7408  135.0708  150.7585 H   0  0  0  0  0  0  0  0  0  0  0  0
  145.8272  135.2729  152.2619 H   0  0  0  0  0  0  0  0  0  0  0  0
  144.2787  132.5978  150.6533 H   0  0  0  0  0  0  0  0  0  0  0  0
  144.6150  130.1773  151.1841 H   0  0  0  0  0  0  0  0  0  0  0  0
  146.6476  129.5144  152.4955 H   0  0  0  0  0  0  0  0  0  0  0  0
  148.0414  134.6541  152.3857 H   0  0  0  0  0  0  0  0  0  0  0  0
  149.4572  135.6033  153.3392 H   0  0  0  0  0  0  0  0  0  0  0  0
  150.6772  134.4953  155.7248 H   0  0  0  0  0  0  0  0  0  0  0  0
  151.8099  134.6909  154.4149 H   0  0  0  0  0  0  0  0  0  0  0  0
  150.0255  136.9154  155.5282 H   0  0  0  0  0  0  0  0  0  0  0  0
  151.6615  136.3962  157.2563 H   0  0  0  0  0  0  0  0  0  0  0  0
  152.9467  136.3116  156.0672 H   0  0  0  0  0  0  0  0  0  0  0  0
  151.4835  138.7998  157.0100 H   0  0  0  0  0  0  0  0  0  0  0  0
  153.2323  138.5568  156.8565 H   0  0  0  0  0  0  0  0  0  0  0  0
  152.1592  136.9667  153.3712 H   0  0  0  0  0  0  0  0  0  0  0  0
  150.5615  137.7260  153.3472 H   0  0  0  0  0  0  0  0  0  0  0  0
  1  2  1  0  0  0  0
  1 20  1  0  0  0  0
  1 21  1  0  0  0  0
  1 22  1  0  0  0  0
  2  7  1  0  0  0  0
  2  3  2  0  0  0  0
  3  4  1  0  0  0  0
  3 23  1  0  0  0  0
  4  5  2  0  0  0  0
  4 24  1  0  0  0  0
  5  6  1  0  0  0  0
  5 25  1  0  0  0  0
  6  7  2  0  0  0  0
  7  8  1  0  0  0  0
  8  9  1  0  0  0  0
  8 26  1  0  0  0  0
  9 10  2  0  0  0  0
  9 11  1  0  0  0  0
 11 12  1  0  0  0  0
 11 27  1  0  0  0  0
 12 13  1  0  0  0  0
 12 28  1  0  0  0  0
 12 29  1  0  0  0  0
 13 19  1  0  0  0  0
 13 14  1  0  0  0  0
 13 30  1  0  0  0  0
 14 15  1  0  0  0  0
 14 31  1  0  0  0  0
 14 32  1  0  0  0  0
 15 16  1  0  0  0  0
 15 33  1  0  0  0  0
 15 34  1  0  0  0  0
 16 17  2  0  0  0  0
 16 18  2  0  0  0  0
 16 19  1  0  0  0  0
 19 35  1  0  0  0  0
 19 36  1  0  0  0  0
M  END
> <s_m_source_file>
AV-unprocessed.smi

> <i_m_source_file_index>
1425

> <i_lp_mmshare_version>
43012

> <i_f3d_flags>
0

> <s_epik_input>
W0NIM11jMVtjSF1bY0hdW2NIXW5jMVtOSF1DKD1PKVtOSF1bQ0gyXVtDQEBIXShbQ0gyXTIpW0NIMl1bQ0gyXVMyKD1PKT1P

> <s_epik_cmdline>
J2VwaWtfcHl0aG9uJywgJy1waCcsICc3LjAnLCAnLXRuJywgJzgnLCAnLW1hJywgJzIwMCcsICctbWV0YWxfYmluZGluZycsICctaW1hZScsICc8aW5maWxlLm1hZT4nLCAnLW9tYWUnLCAnPG91dGZpbGUubWFlPic=

> <r_lp_tautomer_probability>
1

> <r_epik_Ionization_Penalty>
5.46275e-05

> <r_epik_Ionization_Penalty_Charging>
0

> <r_epik_Ionization_Penalty_Neutral>
5.46275e-05

> <r_epik_State_Penalty>
-0

> <r_epik_Charging_Adjusted_Penalty>
0

> <i_epik_Tot_Q>
0

> <i_epik_Tot_abs_Q>
0

> <r_epik_Metal_State_Penalty>
-0

> <b_epik_Metal_Only>
0

> <s_lp_Force_Field>
OPLS_2005

> <r_lp_Energy>
7.35863

> <b_lp_Chiralities_Consistent>
1

> <s_lp_Variant>
AV-unprocessed.smi:1425-2

> <Gold.Version>
5.8.1

> <Gold.Id.Protein>
6NUR|6NUR_protein|mol2

> <Gold.PLP.Fitness>
45.0846

> <Gold.PLP.PLP>
-33.5948

> <Gold.PLP.part.hbond>
-4.0000

> <Gold.PLP.part.metal>
0.0000

> <Gold.PLP.part.buried>
-6.3682

> <Gold.PLP.part.nonpolar>
-23.5523

> <Gold.PLP.part.repulsive>
0.2371

> <Gold.PLP.ligand.clash>
0.0000

> <Gold.PLP.ligand.torsion>
0.2443

> <Gold.PLP.Chemscore.Hbond>
3.9920

> <Gold.PLP.Chemscore.CHOScore>
0.0000

> <Gold.PLP.Chemscore.Metal>
0.0000

> <Gold.Chemscore.Hbonds>
donor molecule, donor type, donor heavy atom, donor atom, acceptor molecule, acceptor atom, score
      L1  H     8    26       P1  7948  0.88
      L1  H    11    27       P1  7948  0.83
      P1  H  7989  7998       L1    17  0.89
      P1  H  7997  8010       L1    18  0.67

> <Gold.PLP.Chemscore.Internal.Correction>
0.0023

> <Gold.Rescore>
     Score         DG    S(hbond)    S(metal)    S(lipo)     H(rot)  DE(clash)    DE(int)     intcor
     18.41     -19.95       3.26        0.00      59.02       1.29       0.05       1.49       ----

> <Gold.Chemscore.Fitness>
18.4102

> <Gold.Chemscore.DG>
-19.9515

> <Gold.Chemscore.ZeroCoef>
-5.4800

> <Gold.Chemscore.Hbond>
3.2571

> <Gold.Chemscore.Metal>
0.0000

> <Gold.Chemscore.Lipo>
59.0176

> <Gold.Chemscore.Internal_Hbond>
0.0000

> <Gold.Chemscore.DEClash>
0.0464

> <Gold.Chemscore.DEInternal>
1.4949

> <Gold.Chemscore.Rot>
1.2939

> <Gold.Chemscore.Internal.Correction>
   9.000000E+99

> <Gold.Chemscore.Hbonds>
donor molecule, donor type, donor heavy atom, donor atom, acceptor molecule, acceptor atom, score
      L1  H     8    26       P1  7948  0.39
      L1  H    11    27       P1  7948  0.14
      P1  H  7989  7998       L1    17  0.35
      P1  H  7997  8010       L1    18  0.40

> <Gold.Chemscore.Hbond.Weighted>
-10.8787

> <Gold.Chemscore.Metal.Weighted>
-0.0000

> <Gold.Chemscore.Lipo.Weighted>
-6.9051

> <Gold.Chemscore.Internal_Hbond.Weighted>
0.0000

> <Gold.Chemscore.DEClash.Weighted>
0.0464

> <Gold.Chemscore.DEInternal.Weighted>
1.4949

> <Gold.Chemscore.Rot.Weighted>
3.3123

> <Gold.Chemscore.Internal.Correction.Weighted>
   9.000000E+99

> <Gold.Protein.RotatedTorsions>
[ 6907 6896 6895 6894 ] final  -28.02 input  -60.11 | X-H torsion
[ 7974 7965 7964 7962 ] final -141.75 input  175.53 | X-H torsion
[ 8008 7997 7996 7995 ] final  122.05 input   59.86 | X-H torsion
[ 10167 10162 10161 10158 ] final   76.52 input  -65.29 | X-H torsion
[ 10718 10713 10712 10709 ] final  -69.25 input   66.30 | X-H torsion
[ 10763 10752 10751 10750 ] final    0.10 input  -60.55 | X-H torsion
[ 11005 11000 10999 10996 ] final   39.76 input  -57.11 | X-H torsion

> <Gold.Protein.ActiveResidues>
 VAL166  LYS551  ARG553  GLY616  TRP617  ASP618  TYR619  PRO620  LYS621  CYS622 
 ASP623  PHE694  ASN695  SER759  ASP760  ASP761  ALA762  ILE779  LEU786  VAL792 
 PHE793  MET794  SER795  GLU796  ALA797  LYS798  CYS799  TRP800  GLU811  SER814 

> <Gold.Protein.RotatedAtoms>
  151.1387  135.0168  159.8615 H   0  0  0  0  0  0  0  0  0  0  0  0  # atno 6907 bound_to 6896
  152.5452  134.1524  159.8534 H   0  0  0  0  0  0  0  0  0  0  0  0  # atno 6908 bound_to 6896
  151.1598  133.4807  159.2627 H   0  0  0  0  0  0  0  0  0  0  0  0  # atno 6909 bound_to 6896
  144.8496  140.6042  143.5399 H   0  0  0  0  0  0  0  0  0  0  0  0  # atno 7974 bound_to 7965
  156.2712  140.2794  156.1405 H   0  0  0  0  0  0  0  0  0  0  0  0  # atno 8008 bound_to 7997
  155.0958  140.0389  157.2700 H   0  0  0  0  0  0  0  0  0  0  0  0  # atno 8009 bound_to 7997
  154.6853  140.2617  155.6872 H   0  0  0  0  0  0  0  0  0  0  0  0  # atno 8010 bound_to 7997
  139.9913  144.5754  150.7815 H   0  0  0  0  0  0  0  0  0  0  0  0  # atno 10167 bound_to 10162
  156.0464  130.4309  150.2120 H   0  0  0  0  0  0  0  0  0  0  0  0  # atno 10718 bound_to 10713
  153.3250  135.6971  153.6997 H   0  0  0  0  0  0  0  0  0  0  0  0  # atno 10763 bound_to 10752
  153.5822  135.3495  155.2880 H   0  0  0  0  0  0  0  0  0  0  0  0  # atno 10764 bound_to 10752
  154.8606  135.4298  154.2424 H   0  0  0  0  0  0  0  0  0  0  0  0  # atno 10765 bound_to 10752
  140.1997  134.3886  155.8103 H   0  0  0  0  0  0  0  0  0  0  0  0  # atno 11005 bound_to 11000
  145.4528  139.1521  143.3909 LP  0  0  0  0  0  0  0  0  0  0  0  0  # atno 17320 bound_to 7965
  146.2773  140.4654  142.8790 LP  0  0  0  0  0  0  0  0  0  0  0  0  # atno 17321 bound_to 7965
  140.7453  143.2874  151.3425 LP  0  0  0  0  0  0  0  0  0  0  0  0  # atno 17342 bound_to 10162
  139.6338  144.0670  152.2498 LP  0  0  0  0  0  0  0  0  0  0  0  0  # atno 17343 bound_to 10162
  157.0209  130.9979  151.3340 LP  0  0  0  0  0  0  0  0  0  0  0  0  # atno 17370 bound_to 10713
  157.5344  130.8079  149.7955 LP  0  0  0  0  0  0  0  0  0  0  0  0  # atno 17371 bound_to 10713
  141.2227  133.7087  156.8236 LP  0  0  0  0  0  0  0  0  0  0  0  0  # atno 17394 bound_to 11000
  140.2068  134.8857  157.3231 LP  0  0  0  0  0  0  0  0  0  0  0  0  # atno 17395 bound_to 11000

$$$$
