#       Name:                AV-unprocessed.smi:38
#       Creating user name   scv26
#       Creation time:       Thu Mar 26 16:17:10 2020


#       File generated by GOLD software.
#

@<TRIPOS>MOLECULE
AV-unprocessed.smi:38
    38    39     1
SMALL
NO_CHARGES


@<TRIPOS>ATOM
      1 ****        -2.4053   4.5003  -1.0685 O.2            1 S1                 0.0000
      2 ****        -2.0161   3.3914  -0.7074 C.2            1 S1                 0.0000
      3 ****        -2.8701   2.5436   0.0044 N.am           1 S1                 0.0000
      4 ****        -2.5481   1.2651   0.4646 C.2            1 S1                 0.0000
      5 ****        -3.3902   0.6048   1.0712 O.2            1 S1                 0.0000
      6 ****        -1.2449   0.7917   0.1903 N.am           1 S1                 0.0000
      7 ****        -0.8194  -0.5782   0.6675 C.3            1 S1                 0.0000
      8 ****        -0.7739  -1.5749  -0.4951 C.3            1 S1                 0.0000
      9 ****         0.7169  -1.7589  -0.7107 C.3            1 S1                 0.0000
     10 ****         0.9968  -3.0564  -1.1951 O.3            1 S1                 0.0000
     11 ****         1.2854  -1.5235   0.6914 C.3            1 S1                 0.0000
     12 ****         2.7557  -1.0779   0.6913 C.3            1 S1                 0.0000
     13 ****         3.3212  -1.2737   1.9696 O.3            1 S1                 0.0000
     14 ****         0.4656  -0.4769   1.2020 O.3            1 S1                 0.0000
     15 ****        -0.3633   1.5999  -0.5147 C.2            1 S1                 0.0000
     16 ****        -0.6890   2.8370  -0.9578 C.2            1 S1                 0.0000
     17 ****         0.2199   3.5606  -1.6334 F              1 S1                 0.0000
     18 ****        -3.7997   2.8843   0.2016 H              1 S1                 0.0000
     19 ****        -1.5003  -0.8860   1.4619 H              1 S1                 0.0000
     20 ****         1.0909  -1.0114  -1.4112 H              1 S1                 0.0000
     21 ****         1.1393  -2.4176   1.3013 H              1 S1                 0.0000
     22 ****        -1.2426  -2.5031  -0.1637 H              1 S1                 0.0000
     23 ****        -1.3037  -1.2109  -1.3764 H              1 S1                 0.0000
     24 ****         1.9335  -3.1537  -1.2757 H              1 S1                 0.0000
     25 ****         3.3305  -1.6783  -0.0142 H              1 S1                 0.0000
     26 ****         2.8546  -0.0357   0.3860 H              1 S1                 0.0000
     27 ****         4.2246  -0.9976   1.9451 H              1 S1                 0.0000
     28 ****         0.6319   1.2366  -0.7234 H              1 S1                 0.0000
     29 ****        -1.7924   5.1036  -1.5788 LP             1 S1                 0.0000
     30 ****        -3.3348   4.7989  -0.8520 LP             1 S1                 0.0000
     31 ****        -4.3013   0.9839   1.2331 LP             1 S1                 0.0000
     32 ****        -3.1637  -0.3112   1.4024 LP             1 S1                 0.0000
     33 ****         0.5671  -3.1819  -2.0894 LP             1 S1                 0.0000
     34 ****         0.6413  -3.7383  -0.5559 LP             1 S1                 0.0000
     35 ****         3.2713  -2.2418   2.2153 LP             1 S1                 0.0000
     36 ****         2.8216  -0.7320   2.6456 LP             1 S1                 0.0000
     37 ****         0.4172  -0.5493   2.1982 LP             1 S1                 0.0000
     38 ****         0.8608   0.4067   0.9508 LP             1 S1                 0.0000
@<TRIPOS>BOND
    1    1    2 2     
    2    2   16 1     
    3    2    3 1     
    4    3   18 1     
    5    3    4 1     
    6    4    5 2     
    7    4    6 1     
    8    6    7 1     
    9    6   15 1     
   10    7   19 1     
   11    7   14 1     
   12    7    8 1     
   13    8    9 1     
   14    8   22 1     
   15    8   23 1     
   16    9   20 1     
   17    9   10 1     
   18    9   11 1     
   19   10   24 1     
   20   11   21 1     
   21   11   12 1     
   22   11   14 1     
   23   12   13 1     
   24   12   25 1     
   25   12   26 1     
   26   13   27 1     
   27   15   16 2     
   28   15   28 1     
   29   16   17 1     
   30    1   29 1     
   31    1   30 1     
   32    5   31 1     
   33    5   32 1     
   34   10   33 1     
   35   10   34 1     
   36   13   35 1     
   37   13   36 1     
   38   14   37 1     
   39   14   38 1     
@<TRIPOS>SUBSTRUCTURE
      1 S1             1
@<TRIPOS>SET
LONE_PAIRS      STATIC     ATOMS    <user>   **** ""
10 29 30 31 32 33 34 35 36 37 38
DONOR_HYDROGENS      STATIC     ATOMS    <user>   **** ""
3 18 24 27
ATOM$BLUE        STATIC     ATOMS    COLORGROUP SYSTEM
10 29 30 31 32 33 34 35 36 37 38
ATOM$RED        STATIC     ATOMS    COLORGROUP SYSTEM
3 18 24 27
