AV-unprocessed.smi:3046|AV-procd|sdf|11613|dock9
  -GOLD-   2272016593D 1   1.00000     0.00000
 Structure written by MMmdl.
 38 38  0  0  0  0  0  0  0  0  2 V2000
  141.1321  136.7949  153.5469 C   0  0  0  0  0  0  0  0  0  0  0  0
  142.2287  137.5114  153.2579 C   0  0  0  0  0  0  0  0  0  0  0  0
  143.6198  137.1899  153.7598 C   0  0  0  0  0  0  0  0  0  0  0  0
  144.6001  138.0737  153.1466 N   0  0  0  0  0  0  0  0  0  0  0  0
  145.9282  137.9351  153.2718 C   0  0  0  0  0  0  0  0  0  0  0  0
  146.4517  137.0296  153.9224 O   0  0  0  0  0  0  0  0  0  0  0  0
  146.7940  138.9699  152.5430 C   0  0  2  0  0  0  0  0  0  0  0  0
  146.5023  138.9327  151.0321 C   0  0  0  0  0  0  0  0  0  0  0  0
  148.2305  138.7211  152.8113 N   0  3  0  0  0  0  0  0  0  0  0  0
  148.7004  139.0140  154.1844 C   0  0  2  0  0  0  0  0  0  0  0  0
  148.6208  140.5292  154.4343 C   0  0  0  0  0  0  0  0  0  0  0  0
  150.1256  138.4552  154.4050 C   0  0  0  0  0  0  0  0  0  0  0  0
  150.8500  139.1400  155.4605 N   0  0  0  0  0  0  0  0  0  0  0  0
  151.1936  138.6703  156.7110 C   0  0  0  0  0  0  0  0  0  0  0  0
  151.8537  139.6770  157.3554 C   0  0  0  0  0  0  0  0  0  0  0  0
  151.8573  140.7395  156.4089 C   0  0  0  0  0  0  0  0  0  0  0  0
  151.2515  140.4165  155.2774 N   0  0  0  0  0  0  0  0  0  0  0  0
  141.1831  135.9159  154.1730 H   0  0  0  0  0  0  0  0  0  0  0  0
  140.1652  137.0804  153.1591 H   0  0  0  0  0  0  0  0  0  0  0  0
  142.1347  138.3865  152.6314 H   0  0  0  0  0  0  0  0  0  0  0  0
  143.6378  137.3152  154.8432 H   0  0  0  0  0  0  0  0  0  0  0  0
  143.8694  136.1496  153.5443 H   0  0  0  0  0  0  0  0  0  0  0  0
  144.2444  138.8369  152.5888 H   0  0  0  0  0  0  0  0  0  0  0  0
  146.5237  139.9522  152.9314 H   0  0  0  0  0  0  0  0  0  0  0  0
  145.4431  139.0958  150.8289 H   0  0  0  0  0  0  0  0  0  0  0  0
  146.7785  137.9718  150.5955 H   0  0  0  0  0  0  0  0  0  0  0  0
  147.0517  139.7075  150.4976 H   0  0  0  0  0  0  0  0  0  0  0  0
  148.4263  137.7490  152.6189 H   0  0  0  0  0  0  0  0  0  0  0  0
  148.0200  138.5366  154.8900 H   0  0  0  0  0  0  0  0  0  0  0  0
  148.8799  140.7815  155.4629 H   0  0  0  0  0  0  0  0  0  0  0  0
  147.6113  140.9019  154.2577 H   0  0  0  0  0  0  0  0  0  0  0  0
  149.2975  141.0763  153.7770 H   0  0  0  0  0  0  0  0  0  0  0  0
  150.0977  137.3953  154.6577 H   0  0  0  0  0  0  0  0  0  0  0  0
  150.7050  138.5371  153.4843 H   0  0  0  0  0  0  0  0  0  0  0  0
  150.9445  137.6702  157.0346 H   0  0  0  0  0  0  0  0  0  0  0  0
  152.2680  139.6585  158.3526 H   0  0  0  0  0  0  0  0  0  0  0  0
  152.2772  141.7295  156.5106 H   0  0  0  0  0  0  0  0  0  0  0  0
  148.7603  139.2816  152.1591 H   0  0  0  0  0  0  0  0  0  0  0  0
  1  2  2  0  0  0  0
  1 18  1  0  0  0  0
  1 19  1  0  0  0  0
  2  3  1  0  0  0  0
  2 20  1  0  0  0  0
  3  4  1  0  0  0  0
  3 21  1  0  0  0  0
  3 22  1  0  0  0  0
  4  5  1  0  0  0  0
  4 23  1  0  0  0  0
  5  6  2  0  0  0  0
  5  7  1  0  0  0  0
  7  8  1  0  0  0  0
  7  9  1  0  0  0  0
  7 24  1  0  0  0  0
  8 25  1  0  0  0  0
  8 26  1  0  0  0  0
  8 27  1  0  0  0  0
  9 10  1  0  0  0  0
  9 28  1  0  0  0  0
  9 38  1  0  0  0  0
 10 11  1  0  0  0  0
 10 12  1  0  0  0  0
 10 29  1  0  0  0  0
 11 30  1  0  0  0  0
 11 31  1  0  0  0  0
 11 32  1  0  0  0  0
 12 13  1  0  0  0  0
 12 33  1  0  0  0  0
 12 34  1  0  0  0  0
 13 17  1  0  0  0  0
 13 14  1  0  0  0  0
 14 15  2  0  0  0  0
 14 35  1  0  0  0  0
 15 16  1  0  0  0  0
 15 36  1  0  0  0  0
 16 17  2  0  0  0  0
 16 37  1  0  0  0  0
M  CHG  1   9   1
M  END
> <s_m_source_file>
AV-unprocessed.smi

> <i_m_source_file_index>
3046

> <i_lp_mmshare_version>
43012

> <i_f3d_flags>
0

> <s_epik_input>
W0NIMl09W0NIXVtDSDJdW05IXUMoPU8pW0NASF0oW0NIM10pW05IXVtDQEhdKFtDSDNdKVtDSDJdbjFbY0hdW2NIXVtjSF1uMQ==

> <s_epik_cmdline>
J2VwaWtfcHl0aG9uJywgJy1waCcsICc3LjAnLCAnLXRuJywgJzgnLCAnLW1hJywgJzIwMCcsICctbWV0YWxfYmluZGluZycsICctaW1hZScsICc8aW5maWxlLm1hZT4nLCAnLW9tYWUnLCAnPG91dGZpbGUubWFlPic=

> <r_lp_tautomer_probability>
1

> <r_epik_Ionization_Penalty>
0.132961

> <r_epik_Ionization_Penalty_Charging>
0.132956

> <r_epik_Ionization_Penalty_Neutral>
5.00268e-06

> <r_epik_State_Penalty>
0.122332

> <r_epik_Charging_Adjusted_Penalty>
0.255288

> <i_epik_Tot_Q>
1

> <i_epik_Tot_abs_Q>
1

> <r_epik_Metal_State_Penalty>
0.122338

> <b_epik_Metal_Only>
0

> <s_lp_Force_Field>
OPLS_2005

> <r_lp_Energy>
6.28532

> <b_lp_Chiralities_Consistent>
1

> <s_lp_Variant>
AV-unprocessed.smi:3046-1

> <Gold.Version>
5.8.1

> <Gold.Id.Protein>
6NUR|6NUR_protein|mol2

> <Gold.PLP.Fitness>
42.9224

> <Gold.PLP.PLP>
-29.2954

> <Gold.PLP.part.hbond>
-3.9362

> <Gold.PLP.part.metal>
0.0000

> <Gold.PLP.part.buried>
-1.8588

> <Gold.PLP.part.nonpolar>
-23.5608

> <Gold.PLP.part.repulsive>
0.2059

> <Gold.PLP.ligand.clash>
0.0000

> <Gold.PLP.ligand.torsion>
0.5412

> <Gold.PLP.Chemscore.Hbond>
4.8863

> <Gold.PLP.Chemscore.CHOScore>
0.0000

> <Gold.PLP.Chemscore.Metal>
0.0000

> <Gold.Chemscore.Hbonds>
donor molecule, donor type, donor heavy atom, donor atom, acceptor molecule, acceptor atom, score
      L1  H     4    23       P1 10175  1.00
      L1  H     9    28       P1  7948  2.00
      L1  H     9    38       P1  7957  0.93
      P1  H  7989  7998       L1    17  0.96

> <Gold.PLP.Chemscore.Internal.Correction>
0.0507

> <Gold.Rescore>
     Score         DG    S(hbond)    S(metal)    S(lipo)     H(rot)  DE(clash)    DE(int)     intcor
     17.63     -21.06       3.94        0.00      70.21       2.26       1.32       2.11       ----

> <Gold.Chemscore.Fitness>
17.6287

> <Gold.Chemscore.DG>
-21.0612

> <Gold.Chemscore.ZeroCoef>
-5.4800

> <Gold.Chemscore.Hbond>
3.9397

> <Gold.Chemscore.Metal>
0.0000

> <Gold.Chemscore.Lipo>
70.2122

> <Gold.Chemscore.Internal_Hbond>
0.0000

> <Gold.Chemscore.DEClash>
1.3196

> <Gold.Chemscore.DEInternal>
2.1129

> <Gold.Chemscore.Rot>
2.2626

> <Gold.Chemscore.Internal.Correction>
   9.000000E+99

> <Gold.Chemscore.Hbonds>
donor molecule, donor type, donor heavy atom, donor atom, acceptor molecule, acceptor atom, score
      L1  H     4    23       P1 10175  0.95
      L1  H     9    28       P1  7948  1.00
      L1  H     9    38       P1  7957  0.89
      P1  H  7989  7998       L1    17  0.84

> <Gold.Chemscore.Hbond.Weighted>
-13.1586

> <Gold.Chemscore.Metal.Weighted>
-0.0000

> <Gold.Chemscore.Lipo.Weighted>
-8.2148

> <Gold.Chemscore.Internal_Hbond.Weighted>
0.0000

> <Gold.Chemscore.DEClash.Weighted>
1.3196

> <Gold.Chemscore.DEInternal.Weighted>
2.1129

> <Gold.Chemscore.Rot.Weighted>
5.7922

> <Gold.Chemscore.Internal.Correction.Weighted>
   9.000000E+99

> <Gold.Protein.RotatedTorsions>
[ 6907 6896 6895 6894 ] final  -43.13 input  -60.11 | X-H torsion
[ 7974 7965 7964 7962 ] final  160.18 input  175.53 | X-H torsion
[ 8008 7997 7996 7995 ] final  -60.69 input   59.86 | X-H torsion
[ 10167 10162 10161 10158 ] final    9.98 input  -65.29 | X-H torsion
[ 10718 10713 10712 10709 ] final  112.76 input   66.30 | X-H torsion
[ 10763 10752 10751 10750 ] final -152.70 input  -60.55 | X-H torsion
[ 11005 11000 10999 10996 ] final  -67.79 input  -57.11 | X-H torsion

> <Gold.Protein.ActiveResidues>
 VAL166  LYS551  ARG553  GLY616  TRP617  ASP618  TYR619  PRO620  LYS621  CYS622 
 ASP623  PHE694  ASN695  SER759  ASP760  ASP761  ALA762  ILE779  LEU786  VAL792 
 PHE793  MET794  SER795  GLU796  ALA797  LYS798  CYS799  TRP800  GLU811  SER814 

> <Gold.Protein.RotatedAtoms>
  150.9473  134.8877  159.7649 H   0  0  0  0  0  0  0  0  0  0  0  0  # atno 6907 bound_to 6896
  152.5105  134.3856  159.9376 H   0  0  0  0  0  0  0  0  0  0  0  0  # atno 6908 bound_to 6896
  151.3874  133.3760  159.2752 H   0  0  0  0  0  0  0  0  0  0  0  0  # atno 6909 bound_to 6896
  144.7750  139.7721  143.6282 H   0  0  0  0  0  0  0  0  0  0  0  0  # atno 7974 bound_to 7965
  154.4411  140.1034  156.6313 H   0  0  0  0  0  0  0  0  0  0  0  0  # atno 8008 bound_to 7997
  155.5602  140.3487  155.4471 H   0  0  0  0  0  0  0  0  0  0  0  0  # atno 8009 bound_to 7997
  156.0465  140.1294  157.0087 H   0  0  0  0  0  0  0  0  0  0  0  0  # atno 8010 bound_to 7997
  140.6222  143.8180  150.7189 H   0  0  0  0  0  0  0  0  0  0  0  0  # atno 10167 bound_to 10162
  157.6375  131.0973  150.6942 H   0  0  0  0  0  0  0  0  0  0  0  0  # atno 10718 bound_to 10713
  154.7977  135.3230  154.7626 H   0  0  0  0  0  0  0  0  0  0  0  0  # atno 10763 bound_to 10752
  153.8301  135.6880  153.4820 H   0  0  0  0  0  0  0  0  0  0  0  0  # atno 10764 bound_to 10752
  153.1677  135.4635  154.9802 H   0  0  0  0  0  0  0  0  0  0  0  0  # atno 10765 bound_to 10752
  141.1517  133.6726  156.6347 H   0  0  0  0  0  0  0  0  0  0  0  0  # atno 11005 bound_to 11000
  146.1924  139.5172  142.9796 LP  0  0  0  0  0  0  0  0  0  0  0  0  # atno 17320 bound_to 7965
  145.6211  141.0322  143.1914 LP  0  0  0  0  0  0  0  0  0  0  0  0  # atno 17321 bound_to 7965
  140.1772  143.4145  152.1959 LP  0  0  0  0  0  0  0  0  0  0  0  0  # atno 17342 bound_to 10162
  139.5448  144.7289  151.4617 LP  0  0  0  0  0  0  0  0  0  0  0  0  # atno 17343 bound_to 10162
  156.7271  130.4698  149.5508 LP  0  0  0  0  0  0  0  0  0  0  0  0  # atno 17370 bound_to 10713
  156.1627  130.6384  151.0739 LP  0  0  0  0  0  0  0  0  0  0  0  0  # atno 17371 bound_to 10713
  140.3439  134.7825  157.4418 LP  0  0  0  0  0  0  0  0  0  0  0  0  # atno 17394 bound_to 11000
  140.0915  134.5594  155.8439 LP  0  0  0  0  0  0  0  0  0  0  0  0  # atno 17395 bound_to 11000

$$$$
