#       Name:                AV-unprocessed.smi:1495
#       Creating user name   scv26
#       Creation time:       Fri Mar 27 06:17:01 2020


#       File generated by GOLD software.
#

@<TRIPOS>MOLECULE
AV-unprocessed.smi:1495
    45    46     1
SMALL
NO_CHARGES


@<TRIPOS>ATOM
      1 ****        -4.7073  -2.5726   0.9581 C.3            1 S1                 0.0000
      2 ****        -3.8347  -1.4164   1.4616 C.3            1 S1                 0.0000
      3 ****        -3.2761  -0.5477   0.3242 C.3            1 S1                 0.0000
      4 ****        -2.3025   0.5309   0.8430 C.3            1 S1                 0.0000
      5 ****        -1.8479   1.3310  -0.3035 N.am           1 S1                 0.0000
      6 ****        -0.6165   1.3067  -0.8715 C.2            1 S1                 0.0000
      7 ****        -0.3556   1.8560  -1.9428 O.2            1 S1                 0.0000
      8 ****         0.3180   0.6606  -0.1564 N.am           1 S1                 0.0000
      9 ****         1.7103   0.5103  -0.5549 C.3            1 S1                 0.0000
     10 ****         2.4660  -0.3706   0.4493 C.3            1 S1                 0.0000
     11 ****         3.9046  -0.5522   0.0720 C.2            1 S1                 0.0000
     12 ****         4.4620  -1.6432  -0.5470 C.2            1 S1                 0.0000
     13 ****         6.1719  -1.4376  -0.8100 S.3            1 S1                 0.0000
     14 ****         6.0648   0.1501  -0.0587 C.2            1 S1                 0.0000
     15 ****         7.2351   1.0560   0.1152 C.3            1 S1                 0.0000
     16 ****         4.8299   0.4604   0.3436 N.2            1 S1                 0.0000
     17 ****        -2.9895   2.0021  -0.9295 C.3            1 S1                 0.0000
     18 ****        -3.9676   0.9230  -1.4261 C.3            1 S1                 0.0000
     19 ****        -4.3667   0.0997  -0.3322 O.3            1 S1                 0.0000
     20 ****        -5.0701  -3.1753   1.7907 H              1 S1                 0.0000
     21 ****        -4.1464  -3.2288   0.2920 H              1 S1                 0.0000
     22 ****        -5.5762  -2.2041   0.4124 H              1 S1                 0.0000
     23 ****        -4.4105  -0.7971   2.1504 H              1 S1                 0.0000
     24 ****        -3.0079  -1.8304   2.0396 H              1 S1                 0.0000
     25 ****        -2.7571  -1.1904  -0.3896 H              1 S1                 0.0000
     26 ****        -2.8086   1.1833   1.5562 H              1 S1                 0.0000
     27 ****        -1.4929   0.0612   1.4013 H              1 S1                 0.0000
     28 ****         0.0431   0.2452   0.7216 H              1 S1                 0.0000
     29 ****         1.7579   0.0655  -1.5506 H              1 S1                 0.0000
     30 ****         2.1744   1.4961  -0.6179 H              1 S1                 0.0000
     31 ****         2.3982   0.0708   1.4447 H              1 S1                 0.0000
     32 ****         1.9764  -1.3429   0.5199 H              1 S1                 0.0000
     33 ****         3.9716  -2.5514  -0.8647 H              1 S1                 0.0000
     34 ****         6.9672   2.0760  -0.1617 H              1 S1                 0.0000
     35 ****         8.0634   0.7303  -0.5142 H              1 S1                 0.0000
     36 ****         7.5611   1.0478   1.1554 H              1 S1                 0.0000
     37 ****        -3.4790   2.6466  -0.1980 H              1 S1                 0.0000
     38 ****        -2.6990   2.6521  -1.7559 H              1 S1                 0.0000
     39 ****        -4.8531   1.3863  -1.8612 H              1 S1                 0.0000
     40 ****        -3.5098   0.3115  -2.2053 H              1 S1                 0.0000
     41 ****        -1.0698   2.3509  -2.4379 LP             1 S1                 0.0000
     42 ****         0.5703   1.8071  -2.3173 LP             1 S1                 0.0000
     43 ****         4.5926   1.3230   0.7905 LP             1 S1                 0.0000
     44 ****        -4.8436   0.6710   0.3359 LP             1 S1                 0.0000
     45 ****        -4.9904  -0.6023  -0.6760 LP             1 S1                 0.0000
@<TRIPOS>BOND
    1    1    2 1     
    2    1   20 1     
    3    1   21 1     
    4    1   22 1     
    5    2    3 1     
    6    2   23 1     
    7    2   24 1     
    8    3   19 1     
    9    3    4 1     
   10    3   25 1     
   11    4    5 1     
   12    4   26 1     
   13    4   27 1     
   14    5    6 am    
   15    5   17 1     
   16    6    7 2     
   17    6    8 am    
   18    8    9 1     
   19    8   28 1     
   20    9   10 1     
   21    9   29 1     
   22    9   30 1     
   23   10   11 1     
   24   10   31 1     
   25   10   32 1     
   26   11   16 1     
   27   11   12 2     
   28   12   13 1     
   29   12   33 1     
   30   13   14 1     
   31   14   15 1     
   32   14   16 2     
   33   15   34 1     
   34   15   35 1     
   35   15   36 1     
   36   17   18 1     
   37   17   37 1     
   38   17   38 1     
   39   18   19 1     
   40   18   39 1     
   41   18   40 1     
   42    7   41 1     
   43    7   42 1     
   44   16   43 1     
   45   19   44 1     
   46   19   45 1     
@<TRIPOS>SUBSTRUCTURE
      1 S1             1
@<TRIPOS>SET
LONE_PAIRS      STATIC     ATOMS    <user>   **** ""
5 41 42 43 44 45
DONOR_HYDROGENS      STATIC     ATOMS    <user>   **** ""
1 28
ATOM$BLUE        STATIC     ATOMS    COLORGROUP SYSTEM
5 41 42 43 44 45
ATOM$RED        STATIC     ATOMS    COLORGROUP SYSTEM
1 28
