AV-unprocessed.smi:3201|AV-procd|sdf|12239|dock4
  -GOLD-   2272018 73D 1   1.00000     0.00000
 Structure written by MMmdl.
 41 43  0  0  0  0  0  0  0  0  2 V2000
  152.3492  139.1097  155.4889 C   0  0  0  0  0  0  0  0  0  0  0  0
  150.9352  138.9953  155.0179 C   0  0  0  0  0  0  0  0  0  0  0  0
  149.9545  139.9426  154.8925 C   0  0  0  0  0  0  0  0  0  0  0  0
  150.0133  141.4138  155.1997 C   0  0  0  0  0  0  0  0  0  0  0  0
  150.3909  141.6674  156.6650 C   0  0  0  0  0  0  0  0  0  0  0  0
  150.7344  143.0868  156.8853 N   0  3  0  0  0  0  0  0  0  0  0  0
  150.7765  143.5022  158.3050 C   0  0  2  0  0  0  0  0  0  0  0  0
  150.8188  145.0408  158.4404 C   0  0  0  0  0  0  0  0  0  0  0  0
  152.0964  145.2818  159.2651 C   0  0  1  0  0  0  0  0  0  0  0  0
  151.8842  144.7805  160.7054 C   0  0  0  0  0  0  0  0  0  0  0  0
  151.8977  143.2494  160.5366 C   0  0  0  0  0  0  0  0  0  0  0  0
  152.0825  143.0755  159.0171 C   0  0  2  0  0  0  0  0  0  0  0  0
  153.0336  144.2247  158.6959 C   0  0  0  0  0  0  0  0  0  0  0  0
  148.8393  139.2095  154.3973 C   0  0  0  0  0  0  0  0  0  0  0  0
  149.1016  137.9257  154.2318 N   0  0  0  0  0  0  0  0  0  0  0  0
  150.3895  137.7923  154.6100 N   0  0  0  0  0  0  0  0  0  0  0  0
  151.0162  136.4858  154.5533 C   0  0  0  0  0  0  0  0  0  0  0  0
  152.5607  140.1094  155.8671 H   0  0  0  0  0  0  0  0  0  0  0  0
  153.0451  138.9056  154.6750 H   0  0  0  0  0  0  0  0  0  0  0  0
  152.5500  138.4003  156.2920 H   0  0  0  0  0  0  0  0  0  0  0  0
  150.7335  141.9106  154.5485 H   0  0  0  0  0  0  0  0  0  0  0  0
  149.0522  141.8847  154.9892 H   0  0  0  0  0  0  0  0  0  0  0  0
  149.5588  141.3949  157.3157 H   0  0  0  0  0  0  0  0  0  0  0  0
  151.2355  141.0370  156.9428 H   0  0  0  0  0  0  0  0  0  0  0  0
  151.6311  143.2822  156.4637 H   0  0  0  0  0  0  0  0  0  0  0  0
  149.8984  143.1023  158.8149 H   0  0  0  0  0  0  0  0  0  0  0  0
  150.8997  145.5288  157.4677 H   0  0  0  0  0  0  0  0  0  0  0  0
  149.9301  145.4369  158.9334 H   0  0  0  0  0  0  0  0  0  0  0  0
  152.4671  146.3057  159.2080 H   0  0  0  0  0  0  0  0  0  0  0  0
  152.7003  145.1012  161.3542 H   0  0  0  0  0  0  0  0  0  0  0  0
  150.9509  145.1442  161.1368 H   0  0  0  0  0  0  0  0  0  0  0  0
  152.7363  142.8132  161.0808 H   0  0  0  0  0  0  0  0  0  0  0  0
  150.9837  142.7803  160.9029 H   0  0  0  0  0  0  0  0  0  0  0  0
  152.4502  142.0863  158.7445 H   0  0  0  0  0  0  0  0  0  0  0  0
  153.2271  144.3456  157.6287 H   0  0  0  0  0  0  0  0  0  0  0  0
  153.9856  144.1603  159.2263 H   0  0  0  0  0  0  0  0  0  0  0  0
  147.8507  139.5716  154.1563 H   0  0  0  0  0  0  0  0  0  0  0  0
  151.9435  136.5470  153.9833 H   0  0  0  0  0  0  0  0  0  0  0  0
  150.3563  135.7617  154.0732 H   0  0  0  0  0  0  0  0  0  0  0  0
  151.2406  136.1437  155.5638 H   0  0  0  0  0  0  0  0  0  0  0  0
  150.0325  143.6443  156.4199 H   0  0  0  0  0  0  0  0  0  0  0  0
  1  2  1  0  0  0  0
  1 18  1  0  0  0  0
  1 19  1  0  0  0  0
  1 20  1  0  0  0  0
  2 16  1  0  0  0  0
  2  3  2  0  0  0  0
  3  4  1  0  0  0  0
  3 14  1  0  0  0  0
  4  5  1  0  0  0  0
  4 21  1  0  0  0  0
  4 22  1  0  0  0  0
  5  6  1  0  0  0  0
  5 23  1  0  0  0  0
  5 24  1  0  0  0  0
  6  7  1  0  0  0  0
  6 25  1  0  0  0  0
  6 41  1  0  0  0  0
  7 12  1  0  0  0  0
  7  8  1  0  0  0  0
  7 26  1  0  0  0  0
  8  9  1  0  0  0  0
  8 27  1  0  0  0  0
  8 28  1  0  0  0  0
  9 13  1  0  0  0  0
  9 10  1  0  0  0  0
  9 29  1  0  0  0  0
 10 11  1  0  0  0  0
 10 30  1  0  0  0  0
 10 31  1  0  0  0  0
 11 12  1  0  0  0  0
 11 32  1  0  0  0  0
 11 33  1  0  0  0  0
 12 13  1  0  0  0  0
 12 34  1  0  0  0  0
 13 35  1  0  0  0  0
 13 36  1  0  0  0  0
 14 15  2  0  0  0  0
 14 37  1  0  0  0  0
 15 16  1  0  0  0  0
 16 17  1  0  0  0  0
 17 38  1  0  0  0  0
 17 39  1  0  0  0  0
 17 40  1  0  0  0  0
M  CHG  1   6   1
M  END
> <s_m_source_file>
AV-unprocessed.smi

> <i_m_source_file_index>
3201

> <i_lp_mmshare_version>
43012

> <i_f3d_flags>
0

> <s_epik_input>
W0NIM11uMW5bY0hdYyhjMVtDSDNdKVtDSDJdW0NIMl1bTkhdW0NASF0oW0NIMl1bQ0BIXTIzKVtDQEhdKFtDSDJdMylbQ0gyXVtDSDJdMg==

> <s_epik_cmdline>
J2VwaWtfcHl0aG9uJywgJy1waCcsICc3LjAnLCAnLXRuJywgJzgnLCAnLW1hJywgJzIwMCcsICctbWV0YWxfYmluZGluZycsICctaW1hZScsICc8aW5maWxlLm1hZT4nLCAnLW9tYWUnLCAnPG91dGZpbGUubWFlPic=

> <r_lp_tautomer_probability>
1

> <r_epik_Ionization_Penalty>
0.000331174

> <r_epik_Ionization_Penalty_Charging>
0.000242709

> <r_epik_Ionization_Penalty_Neutral>
8.84659e-05

> <r_epik_State_Penalty>
-0

> <r_epik_Charging_Adjusted_Penalty>
0.000242709

> <i_epik_Tot_Q>
1

> <i_epik_Tot_abs_Q>
1

> <r_epik_Metal_State_Penalty>
-0

> <b_epik_Metal_Only>
0

> <s_lp_Force_Field>
OPLS_2005

> <r_lp_Energy>
49.8246

> <b_lp_Chiralities_Consistent>
1

> <s_lp_Variant>
AV-unprocessed.smi:3201-3

> <Gold.Version>
5.8.1

> <Gold.Id.Protein>
6NUR|6NUR_protein|mol2

> <Gold.PLP.Fitness>
46.2124

> <Gold.PLP.PLP>
-40.6230

> <Gold.PLP.part.hbond>
-1.0000

> <Gold.PLP.part.metal>
0.0000

> <Gold.PLP.part.buried>
-5.2889

> <Gold.PLP.part.nonpolar>
-36.3065

> <Gold.PLP.part.repulsive>
0.7791

> <Gold.PLP.ligand.clash>
0.0000

> <Gold.PLP.ligand.torsion>
0.2187

> <Gold.PLP.Chemscore.Hbond>
2.0000

> <Gold.PLP.Chemscore.CHOScore>
0.0000

> <Gold.PLP.Chemscore.Metal>
0.0000

> <Gold.Chemscore.Hbonds>
donor molecule, donor type, donor heavy atom, donor atom, acceptor molecule, acceptor atom, score
      L1  H     6    41       P1  8028  2.00

> <Gold.PLP.Chemscore.Internal.Correction>
0.0266

> <Gold.Rescore>
     Score         DG    S(hbond)    S(metal)    S(lipo)     H(rot)  DE(clash)    DE(int)     intcor
     20.24     -20.50       1.00        0.00     129.53       1.36       0.10       0.16       ----

> <Gold.Chemscore.Fitness>
20.2387

> <Gold.Chemscore.DG>
-20.4958

> <Gold.Chemscore.ZeroCoef>
-5.4800

> <Gold.Chemscore.Hbond>
0.9999

> <Gold.Chemscore.Metal>
0.0000

> <Gold.Chemscore.Lipo>
129.5291

> <Gold.Chemscore.Internal_Hbond>
0.0000

> <Gold.Chemscore.DEClash>
0.1004

> <Gold.Chemscore.DEInternal>
0.1568

> <Gold.Chemscore.Rot>
1.3588

> <Gold.Chemscore.Internal.Correction>
   9.000000E+99

> <Gold.Chemscore.Hbonds>
donor molecule, donor type, donor heavy atom, donor atom, acceptor molecule, acceptor atom, score
      L1  H     6    41       P1  8028  1.00

> <Gold.Chemscore.Hbond.Weighted>
-3.3395

> <Gold.Chemscore.Metal.Weighted>
-0.0000

> <Gold.Chemscore.Lipo.Weighted>
-15.1549

> <Gold.Chemscore.Internal_Hbond.Weighted>
0.0000

> <Gold.Chemscore.DEClash.Weighted>
0.1004

> <Gold.Chemscore.DEInternal.Weighted>
0.1568

> <Gold.Chemscore.Rot.Weighted>
3.4786

> <Gold.Chemscore.Internal.Correction.Weighted>
   9.000000E+99

> <Gold.Protein.RotatedTorsions>
[ 6907 6896 6895 6894 ] final   14.02 input  -60.11 | X-H torsion
[ 7974 7965 7964 7962 ] final  -99.30 input  175.53 | X-H torsion
[ 8008 7997 7996 7995 ] final  -13.61 input   59.86 | X-H torsion
[ 10167 10162 10161 10158 ] final -105.38 input  -65.29 | X-H torsion
[ 10718 10713 10712 10709 ] final  -98.88 input   66.30 | X-H torsion
[ 10763 10752 10751 10750 ] final  172.87 input  -60.55 | X-H torsion
[ 11005 11000 10999 10996 ] final  -80.73 input  -57.11 | X-H torsion

> <Gold.Protein.ActiveResidues>
 VAL166  LYS551  ARG553  GLY616  TRP617  ASP618  TYR619  PRO620  LYS621  CYS622 
 ASP623  PHE694  ASN695  SER759  ASP760  ASP761  ALA762  ILE779  LEU786  VAL792 
 PHE793  MET794  SER795  GLU796  ALA797  LYS798  CYS799  TRP800  GLU811  SER814 

> <Gold.Protein.RotatedAtoms>
  151.7956  135.0723  160.0392 H   0  0  0  0  0  0  0  0  0  0  0  0  # atno 6907 bound_to 6896
  152.3126  133.5764  159.5699 H   0  0  0  0  0  0  0  0  0  0  0  0  # atno 6908 bound_to 6896
  150.7327  134.0046  159.3691 H   0  0  0  0  0  0  0  0  0  0  0  0  # atno 6909 bound_to 6896
  145.3093  140.9396  143.2778 H   0  0  0  0  0  0  0  0  0  0  0  0  # atno 7974 bound_to 7965
  154.5278  140.2245  155.8858 H   0  0  0  0  0  0  0  0  0  0  0  0  # atno 8008 bound_to 7997
  156.1732  140.3117  155.8975 H   0  0  0  0  0  0  0  0  0  0  0  0  # atno 8009 bound_to 7997
  155.3515  140.0456  157.3037 H   0  0  0  0  0  0  0  0  0  0  0  0  # atno 8010 bound_to 7997
  140.1991  143.3832  152.1144 H   0  0  0  0  0  0  0  0  0  0  0  0  # atno 10167 bound_to 10162
  156.0119  130.5258  150.6588 H   0  0  0  0  0  0  0  0  0  0  0  0  # atno 10718 bound_to 10713
  154.4321  135.2760  155.1905 H   0  0  0  0  0  0  0  0  0  0  0  0  # atno 10763 bound_to 10752
  154.3807  135.6088  153.5793 H   0  0  0  0  0  0  0  0  0  0  0  0  # atno 10764 bound_to 10752
  152.9836  135.5879  154.4634 H   0  0  0  0  0  0  0  0  0  0  0  0  # atno 10765 bound_to 10752
  141.1667  133.7163  156.8316 H   0  0  0  0  0  0  0  0  0  0  0  0  # atno 11005 bound_to 11000
  144.9029  139.4627  143.6624 LP  0  0  0  0  0  0  0  0  0  0  0  0  # atno 17320 bound_to 7965
  146.3123  139.7793  142.9010 LP  0  0  0  0  0  0  0  0  0  0  0  0  # atno 17321 bound_to 7965
  139.5224  144.7059  151.5356 LP  0  0  0  0  0  0  0  0  0  0  0  0  # atno 17342 bound_to 10162
  140.6403  143.8903  150.6685 LP  0  0  0  0  0  0  0  0  0  0  0  0  # atno 17343 bound_to 10162
  157.4335  131.0852  151.1015 LP  0  0  0  0  0  0  0  0  0  0  0  0  # atno 17370 bound_to 10713
  157.1581  130.6213  149.5602 LP  0  0  0  0  0  0  0  0  0  0  0  0  # atno 17371 bound_to 10713
  140.2047  134.8871  157.3208 LP  0  0  0  0  0  0  0  0  0  0  0  0  # atno 17394 bound_to 11000
  140.2150  134.4092  155.7594 LP  0  0  0  0  0  0  0  0  0  0  0  0  # atno 17395 bound_to 11000

$$$$
