AV-unprocessed.smi:1639|AV-procd|sdf|6551|dock8
  -GOLD-   22720 7233D 1   1.00000     0.00000
 Structure written by MMmdl.
 38 39  0  0  0  0  0  0  0  0  2 V2000
  152.4355  145.0107  158.3890 C   0  0  0  0  0  0  0  0  0  0  0  0
  151.2385  144.5266  159.2187 C   0  0  0  0  0  0  0  0  0  0  0  0
  151.5445  143.3388  159.9368 O   0  0  0  0  0  0  0  0  0  0  0  0
  152.2770  142.3631  159.2059 C   0  0  1  0  0  0  0  0  0  0  0  0
  152.7154  141.2437  160.1663 C   0  0  0  0  0  0  0  0  0  0  0  0
  153.3678  140.0960  159.3794 C   0  0  0  0  0  0  0  0  0  0  0  0
  152.4309  139.5923  158.2676 C   0  0  0  0  0  0  0  0  0  0  0  0
  152.0101  140.6933  157.4049 N   0  0  0  0  0  0  0  0  0  0  0  0
  151.2896  140.2630  156.2847 C   0  0  0  0  0  0  0  0  0  0  0  0
  150.1243  140.9103  155.8207 C   0  0  0  0  0  0  0  0  0  0  0  0
  149.5091  140.3655  154.6800 C   0  0  0  0  0  0  0  0  0  0  0  0
  148.2553  140.9724  154.0865 C   0  0  0  0  0  0  0  0  0  0  0  0
  150.0090  139.2764  154.0615 N   0  0  0  0  0  0  0  0  0  0  0  0
  151.1166  138.7088  154.5516 C   0  0  0  0  0  0  0  0  0  0  0  0
  151.6177  137.5999  153.9130 N   0  0  0  0  0  0  0  0  0  0  0  0
  151.7596  139.1704  155.6342 N   0  3  0  0  0  0  0  0  0  0  0  0
  151.3619  141.7992  158.1051 C   0  0  0  0  0  0  0  0  0  0  0  0
  152.2059  145.9554  157.8961 H   0  0  0  0  0  0  0  0  0  0  0  0
  152.7075  144.2938  157.6145 H   0  0  0  0  0  0  0  0  0  0  0  0
  153.3095  145.1688  159.0212 H   0  0  0  0  0  0  0  0  0  0  0  0
  150.9783  145.2951  159.9468 H   0  0  0  0  0  0  0  0  0  0  0  0
  150.3559  144.3832  158.5934 H   0  0  0  0  0  0  0  0  0  0  0  0
  153.1625  142.7931  158.7331 H   0  0  0  0  0  0  0  0  0  0  0  0
  153.4095  141.6315  160.9124 H   0  0  0  0  0  0  0  0  0  0  0  0
  151.8498  140.8660  160.7120 H   0  0  0  0  0  0  0  0  0  0  0  0
  154.3047  140.4408  158.9398 H   0  0  0  0  0  0  0  0  0  0  0  0
  153.6236  139.2775  160.0527 H   0  0  0  0  0  0  0  0  0  0  0  0
  152.9380  138.8313  157.6728 H   0  0  0  0  0  0  0  0  0  0  0  0
  151.5534  139.1196  158.7110 H   0  0  0  0  0  0  0  0  0  0  0  0
  149.7240  141.7828  156.3165 H   0  0  0  0  0  0  0  0  0  0  0  0
  147.9348  141.8474  154.6528 H   0  0  0  0  0  0  0  0  0  0  0  0
  147.4417  140.2465  154.0925 H   0  0  0  0  0  0  0  0  0  0  0  0
  148.4331  141.2809  153.0559 H   0  0  0  0  0  0  0  0  0  0  0  0
  151.1552  137.2296  153.0952 H   0  0  0  0  0  0  0  0  0  0  0  0
  152.4553  137.1470  154.2489 H   0  0  0  0  0  0  0  0  0  0  0  0
  150.4259  141.4528  158.5454 H   0  0  0  0  0  0  0  0  0  0  0  0
  151.1091  142.5872  157.3942 H   0  0  0  0  0  0  0  0  0  0  0  0
  152.6033  138.7119  155.9785 H   0  0  0  0  0  0  0  0  0  0  0  0
  1  2  1  0  0  0  0
  1 18  1  0  0  0  0
  1 19  1  0  0  0  0
  1 20  1  0  0  0  0
  2  3  1  0  0  0  0
  2 21  1  0  0  0  0
  2 22  1  0  0  0  0
  3  4  1  0  0  0  0
  4 17  1  0  0  0  0
  4  5  1  0  0  0  0
  4 23  1  0  0  0  0
  5  6  1  0  0  0  0
  5 24  1  0  0  0  0
  5 25  1  0  0  0  0
  6  7  1  0  0  0  0
  6 26  1  0  0  0  0
  6 27  1  0  0  0  0
  7  8  1  0  0  0  0
  7 28  1  0  0  0  0
  7 29  1  0  0  0  0
  8  9  1  0  0  0  0
  8 17  1  0  0  0  0
  9 16  1  0  0  0  0
  9 10  2  0  0  0  0
 10 11  1  0  0  0  0
 10 30  1  0  0  0  0
 11 12  1  0  0  0  0
 11 13  2  0  0  0  0
 12 31  1  0  0  0  0
 12 32  1  0  0  0  0
 12 33  1  0  0  0  0
 13 14  1  0  0  0  0
 14 15  1  0  0  0  0
 14 16  2  0  0  0  0
 15 34  1  0  0  0  0
 15 35  1  0  0  0  0
 16 38  1  0  0  0  0
 17 36  1  0  0  0  0
 17 37  1  0  0  0  0
M  CHG  1  16   1
M  END
> <s_m_source_file>
AV-unprocessed.smi

> <i_m_source_file_index>
1639

> <i_lp_mmshare_version>
43012

> <i_f3d_flags>
0

> <s_epik_input>
W0NIM11bQ0gyXU9bQ0BASF0xW0NIMl1bQ0gyXVtDSDJdTihbQ0gyXTEpYzJbY0hdYyhbQ0gzXSluYyhuMilbTkgyXQ==

> <s_epik_cmdline>
J2VwaWtfcHl0aG9uJywgJy1waCcsICc3LjAnLCAnLXRuJywgJzgnLCAnLW1hJywgJzIwMCcsICctbWV0YWxfYmluZGluZycsICctaW1hZScsICc8aW5maWxlLm1hZT4nLCAnLW9tYWUnLCAnPG91dGZpbGUubWFlPic=

> <r_lp_tautomer_probability>
0.424989

> <r_epik_Ionization_Penalty>
0.443088

> <r_epik_Ionization_Penalty_Charging>
0.443085

> <r_epik_Ionization_Penalty_Neutral>
3.21819e-06

> <r_epik_State_Penalty>
1.26241

> <r_epik_Charging_Adjusted_Penalty>
1.70549

> <i_epik_Tot_Q>
1

> <i_epik_Tot_abs_Q>
1

> <r_epik_Metal_State_Penalty>
1.59997

> <b_epik_Metal_Only>
0

> <s_lp_Force_Field>
OPLS_2005

> <r_lp_Energy>
15.005

> <b_lp_Chiralities_Consistent>
1

> <s_lp_Variant>
AV-unprocessed.smi:1639-4

> <Gold.Version>
5.8.1

> <Gold.Id.Protein>
6NUR|6NUR_protein|mol2

> <Gold.PLP.Fitness>
40.7175

> <Gold.PLP.PLP>
-35.4942

> <Gold.PLP.part.hbond>
-1.2143

> <Gold.PLP.part.metal>
0.0000

> <Gold.PLP.part.buried>
-6.7829

> <Gold.PLP.part.nonpolar>
-29.6870

> <Gold.PLP.part.repulsive>
1.1491

> <Gold.PLP.ligand.clash>
0.1455

> <Gold.PLP.ligand.torsion>
0.3617

> <Gold.PLP.Chemscore.Hbond>
1.9840

> <Gold.PLP.Chemscore.CHOScore>
0.0000

> <Gold.PLP.Chemscore.Metal>
0.0000

> <Gold.Chemscore.Hbonds>
donor molecule, donor type, donor heavy atom, donor atom, acceptor molecule, acceptor atom, score
      L1  H    15    34       P1  7949  1.98

> <Gold.PLP.Chemscore.Internal.Correction>
0.1402

> <Gold.Rescore>
     Score         DG    S(hbond)    S(metal)    S(lipo)     H(rot)  DE(clash)    DE(int)     intcor
     14.08     -14.34       0.82        0.00      84.14       1.46       0.03       0.22       ----

> <Gold.Chemscore.Fitness>
14.0828

> <Gold.Chemscore.DG>
-14.3378

> <Gold.Chemscore.ZeroCoef>
-5.4800

> <Gold.Chemscore.Hbond>
0.8206

> <Gold.Chemscore.Metal>
0.0000

> <Gold.Chemscore.Lipo>
84.1386

> <Gold.Chemscore.Internal_Hbond>
0.0000

> <Gold.Chemscore.DEClash>
0.0348

> <Gold.Chemscore.DEInternal>
0.2203

> <Gold.Chemscore.Rot>
1.4560

> <Gold.Chemscore.Internal.Correction>
   9.000000E+99

> <Gold.Chemscore.Hbonds>
donor molecule, donor type, donor heavy atom, donor atom, acceptor molecule, acceptor atom, score
      L1  H    15    34       P1  7949  0.44

> <Gold.Chemscore.Hbond.Weighted>
-2.7408

> <Gold.Chemscore.Metal.Weighted>
-0.0000

> <Gold.Chemscore.Lipo.Weighted>
-9.8442

> <Gold.Chemscore.Internal_Hbond.Weighted>
0.0000

> <Gold.Chemscore.DEClash.Weighted>
0.0348

> <Gold.Chemscore.DEInternal.Weighted>
0.2203

> <Gold.Chemscore.Rot.Weighted>
3.7272

> <Gold.Chemscore.Internal.Correction.Weighted>
   9.000000E+99

> <Gold.Protein.RotatedTorsions>
[ 6907 6896 6895 6894 ] final   42.63 input  -60.11 | X-H torsion
[ 7974 7965 7964 7962 ] final  113.78 input  175.53 | X-H torsion
[ 8008 7997 7996 7995 ] final   24.70 input   59.86 | X-H torsion
[ 10167 10162 10161 10158 ] final   10.35 input  -65.29 | X-H torsion
[ 10718 10713 10712 10709 ] final   46.56 input   66.30 | X-H torsion
[ 10763 10752 10751 10750 ] final -121.04 input  -60.55 | X-H torsion
[ 11005 11000 10999 10996 ] final  -77.41 input  -57.11 | X-H torsion

> <Gold.Protein.ActiveResidues>
 VAL166  LYS551  ARG553  GLY616  TRP617  ASP618  TYR619  PRO620  LYS621  CYS622 
 ASP623  PHE694  ASN695  SER759  ASP760  ASP761  ALA762  ILE779  LEU786  VAL792 
 PHE793  MET794  SER795  GLU796  ALA797  LYS798  CYS799  TRP800  GLU811  SER814 

> <Gold.Protein.RotatedAtoms>
  152.2102  134.8508  160.0497 H   0  0  0  0  0  0  0  0  0  0  0  0  # atno 6907 bound_to 6896
  151.9329  133.3611  159.3945 H   0  0  0  0  0  0  0  0  0  0  0  0  # atno 6908 bound_to 6896
  150.6974  134.4443  159.5351 H   0  0  0  0  0  0  0  0  0  0  0  0  # atno 6909 bound_to 6896
  145.2127  139.2899  143.4260 H   0  0  0  0  0  0  0  0  0  0  0  0  # atno 7974 bound_to 7965
  155.0003  140.3124  155.4870 H   0  0  0  0  0  0  0  0  0  0  0  0  # atno 8008 bound_to 7997
  156.2926  140.2233  156.5053 H   0  0  0  0  0  0  0  0  0  0  0  0  # atno 8009 bound_to 7997
  154.7624  140.0458  157.0973 H   0  0  0  0  0  0  0  0  0  0  0  0  # atno 8010 bound_to 7997
  140.6200  143.8226  150.7163 H   0  0  0  0  0  0  0  0  0  0  0  0  # atno 10167 bound_to 10162
  157.4494  130.8129  149.7773 H   0  0  0  0  0  0  0  0  0  0  0  0  # atno 10718 bound_to 10713
  154.8659  135.4182  154.2556 H   0  0  0  0  0  0  0  0  0  0  0  0  # atno 10763 bound_to 10752
  153.3494  135.6998  153.6807 H   0  0  0  0  0  0  0  0  0  0  0  0  # atno 10764 bound_to 10752
  153.5752  135.3583  155.2826 H   0  0  0  0  0  0  0  0  0  0  0  0  # atno 10765 bound_to 10752
  141.1660  133.7021  156.7817 H   0  0  0  0  0  0  0  0  0  0  0  0  # atno 11005 bound_to 11000
  146.3394  140.2407  142.8595 LP  0  0  0  0  0  0  0  0  0  0  0  0  # atno 17320 bound_to 7965
  144.9841  140.8486  143.5379 LP  0  0  0  0  0  0  0  0  0  0  0  0  # atno 17321 bound_to 7965
  140.1814  143.4112  152.1930 LP  0  0  0  0  0  0  0  0  0  0  0  0  # atno 17342 bound_to 10162
  139.5430  144.7274  151.4672 LP  0  0  0  0  0  0  0  0  0  0  0  0  # atno 17343 bound_to 10162
  155.9981  130.3896  150.2715 LP  0  0  0  0  0  0  0  0  0  0  0  0  # atno 17370 bound_to 10713
  157.0886  131.0163  151.3130 LP  0  0  0  0  0  0  0  0  0  0  0  0  # atno 17371 bound_to 10713
  140.2390  134.8628  157.3554 LP  0  0  0  0  0  0  0  0  0  0  0  0  # atno 17394 bound_to 11000
  140.1815  134.4484  155.7769 LP  0  0  0  0  0  0  0  0  0  0  0  0  # atno 17395 bound_to 11000

$$$$
