AV-unprocessed.smi:1056|AV-procd|sdf|4636|dock4
  -GOLD-   22720 3143D 1   1.00000     0.00000
 Structure written by MMmdl.
 46 48  0  0  0  0  0  0  0  0  3 V2000
  152.0342  144.2117  160.8432 C   0  0  0  0  0  0  0  0  0  0  0  0
  151.9109  143.2312  159.6890 C   0  0  0  0  0  0  0  0  0  0  0  0
  150.9895  143.5164  158.6564 C   0  0  0  0  0  0  0  0  0  0  0  0
  150.9009  142.6007  157.6147 C   0  0  0  0  0  0  0  0  0  0  0  0
  150.1031  142.5958  156.4689 N   0  3  0  0  0  0  0  0  0  0  0  0
  150.3700  141.4817  155.7334 C   0  0  0  0  0  0  0  0  0  0  0  0
  151.3251  140.7714  156.3936 N   0  0  0  0  0  0  0  0  0  0  0  0
  151.9650  139.4978  156.0304 C   0  0  0  0  0  0  0  0  0  0  0  0
  150.9644  138.3287  155.9330 C   0  0  2  0  0  0  0  0  0  0  0  0
  151.2601  137.3639  156.9247 O   0  0  0  0  0  0  0  0  0  0  0  0
  151.0148  137.6471  154.5514 C   0  0  0  0  0  0  0  0  0  0  0  0
  149.9687  136.6047  154.3935 N   0  3  1  0  0  0  0  0  0  0  0  0
  150.4016  135.2576  154.8360 C   0  0  0  0  0  0  0  0  0  0  0  0
  149.3492  134.2062  154.4424 C   0  0  0  0  0  0  0  0  0  0  0  0
  147.9799  134.6432  154.7049 N   0  0  0  0  0  0  0  0  0  0  0  0
  147.6014  135.9057  154.9633 C   0  0  0  0  0  0  0  0  0  0  0  0
  146.4262  136.2004  155.1645 O   0  0  0  0  0  0  0  0  0  0  0  0
  148.6778  137.0012  155.0119 C   0  0  0  0  0  0  0  0  0  0  0  0
  151.6884  141.4332  157.5740 C   0  0  0  0  0  0  0  0  0  0  0  0
  152.5999  141.1370  158.5856 C   0  0  0  0  0  0  0  0  0  0  0  0
  152.7061  142.0567  159.6535 C   0  0  0  0  0  0  0  0  0  0  0  0
  153.6940  141.7603  160.7689 C   0  0  0  0  0  0  0  0  0  0  0  0
  151.3307  145.0384  160.7417 H   0  0  0  0  0  0  0  0  0  0  0  0
  153.0394  144.6319  160.8819 H   0  0  0  0  0  0  0  0  0  0  0  0
  151.8287  143.7157  161.7920 H   0  0  0  0  0  0  0  0  0  0  0  0
  150.3810  144.4086  158.6764 H   0  0  0  0  0  0  0  0  0  0  0  0
  149.9064  141.2120  154.7954 H   0  0  0  0  0  0  0  0  0  0  0  0
  152.4499  139.6495  155.0653 H   0  0  0  0  0  0  0  0  0  0  0  0
  152.7642  139.2784  156.7383 H   0  0  0  0  0  0  0  0  0  0  0  0
  149.9643  138.7149  156.1290 H   0  0  0  0  0  0  0  0  0  0  0  0
  150.7561  137.5594  157.7001 H   0  0  0  0  0  0  0  0  0  0  0  0
  150.9079  138.3840  153.7538 H   0  0  0  0  0  0  0  0  0  0  0  0
  152.0030  137.2021  154.4208 H   0  0  0  0  0  0  0  0  0  0  0  0
  151.3633  134.9883  154.4008 H   0  0  0  0  0  0  0  0  0  0  0  0
  150.5364  135.2645  155.9190 H   0  0  0  0  0  0  0  0  0  0  0  0
  149.4271  133.9919  153.3760 H   0  0  0  0  0  0  0  0  0  0  0  0
  149.5362  133.2678  154.9652 H   0  0  0  0  0  0  0  0  0  0  0  0
  147.2621  133.9325  154.6828 H   0  0  0  0  0  0  0  0  0  0  0  0
  148.8422  137.2653  156.0576 H   0  0  0  0  0  0  0  0  0  0  0  0
  148.2965  137.8924  154.5117 H   0  0  0  0  0  0  0  0  0  0  0  0
  153.2052  140.2435  158.5654 H   0  0  0  0  0  0  0  0  0  0  0  0
  154.2541  140.8452  160.5744 H   0  0  0  0  0  0  0  0  0  0  0  0
  153.1720  141.6367  161.7179 H   0  0  0  0  0  0  0  0  0  0  0  0
  154.4126  142.5736  160.8717 H   0  0  0  0  0  0  0  0  0  0  0  0
  149.7869  136.5351  153.4021 H   0  0  0  0  0  0  0  0  0  0  0  0
  149.4265  143.3011  156.2055 H   0  0  0  0  0  0  0  0  0  0  0  0
  1  2  1  0  0  0  0
  1 23  1  0  0  0  0
  1 24  1  0  0  0  0
  1 25  1  0  0  0  0
  2 21  1  0  0  0  0
  2  3  2  0  0  0  0
  3  4  1  0  0  0  0
  3 26  1  0  0  0  0
  4 19  2  0  0  0  0
  4  5  1  0  0  0  0
  5  6  2  0  0  0  0
  5 46  1  0  0  0  0
  6  7  1  0  0  0  0
  6 27  1  0  0  0  0
  7  8  1  0  0  0  0
  7 19  1  0  0  0  0
  8  9  1  0  0  0  0
  8 28  1  0  0  0  0
  8 29  1  0  0  0  0
  9 10  1  0  0  0  0
  9 11  1  0  0  0  0
  9 30  1  0  0  0  0
 10 31  1  0  0  0  0
 11 12  1  0  0  0  0
 11 32  1  0  0  0  0
 11 33  1  0  0  0  0
 12 18  1  0  0  0  0
 12 13  1  0  0  0  0
 12 45  1  0  0  0  0
 13 14  1  0  0  0  0
 13 34  1  0  0  0  0
 13 35  1  0  0  0  0
 14 15  1  0  0  0  0
 14 36  1  0  0  0  0
 14 37  1  0  0  0  0
 15 16  1  0  0  0  0
 15 38  1  0  0  0  0
 16 17  2  0  0  0  0
 16 18  1  0  0  0  0
 18 39  1  0  0  0  0
 18 40  1  0  0  0  0
 19 20  1  0  0  0  0
 20 21  2  0  0  0  0
 20 41  1  0  0  0  0
 21 22  1  0  0  0  0
 22 42  1  0  0  0  0
 22 43  1  0  0  0  0
 22 44  1  0  0  0  0
M  CHG  1   5   1
M  CHG  1  12   1
M  END
> <s_m_source_file>
AV-unprocessed.smi

> <i_m_source_file_index>
1056

> <i_lp_mmshare_version>
43012

> <i_f3d_flags>
0

> <s_epik_input>
W0NIM11jKFtjSF0xKWMoW0NIM10pW2NIXWMoYzEyKW4oW2NIXW4yKVtDSDJdW0NASF0oW09IXSlbQ0gyXU4zW0NIMl1bQ0gyXVtOSF1DKD1PKVtDSDJdMw==

> <s_epik_cmdline>
J2VwaWtfcHl0aG9uJywgJy1waCcsICc3LjAnLCAnLXRuJywgJzgnLCAnLW1hJywgJzIwMCcsICctbWV0YWxfYmluZGluZycsICctaW1hZScsICc8aW5maWxlLm1hZT4nLCAnLW9tYWUnLCAnPG91dGZpbGUubWFlPic=

> <r_epik_Ionization_Penalty>
1.262

> <r_epik_Ionization_Penalty_Charging>
1.26188

> <r_epik_Ionization_Penalty_Neutral>
0.000125436

> <r_epik_State_Penalty>
1.3387

> <r_epik_Charging_Adjusted_Penalty>
2.60058

> <i_epik_Tot_Q>
2

> <i_epik_Tot_abs_Q>
2

> <r_epik_Metal_State_Penalty>
1.58938

> <b_epik_Metal_Only>
0

> <s_lp_Force_Field>
OPLS_2005

> <r_lp_Energy>
35.3013

> <b_lp_Chiralities_Consistent>
1

> <s_lp_Variant>
AV-unprocessed.smi:1056-7

> <Gold.Version>
5.8.1

> <Gold.Id.Protein>
6NUR|6NUR_protein|mol2

> <Gold.PLP.Fitness>
51.9543

> <Gold.PLP.PLP>
-41.9780

> <Gold.PLP.part.hbond>
-2.2865

> <Gold.PLP.part.metal>
0.0000

> <Gold.PLP.part.buried>
-5.0078

> <Gold.PLP.part.nonpolar>
-34.7035

> <Gold.PLP.part.repulsive>
0.1806

> <Gold.PLP.ligand.clash>
0.0000

> <Gold.PLP.ligand.torsion>
1.0413

> <Gold.PLP.Chemscore.Hbond>
4.0000

> <Gold.PLP.Chemscore.CHOScore>
0.0000

> <Gold.PLP.Chemscore.Metal>
0.0000

> <Gold.Chemscore.Hbonds>
donor molecule, donor type, donor heavy atom, donor atom, acceptor molecule, acceptor atom, score
      L1  H     5    46       P1  8028  2.00
      L1  H    12    45       P1  7948  2.00

> <Gold.PLP.Chemscore.Internal.Correction>
0.0589

> <Gold.Rescore>
     Score         DG    S(hbond)    S(metal)    S(lipo)     H(rot)  DE(clash)    DE(int)     intcor
     17.30     -18.43       1.92        0.00     109.08       2.44       0.07       1.06       ----

> <Gold.Chemscore.Fitness>
17.3023

> <Gold.Chemscore.DG>
-18.4295

> <Gold.Chemscore.ZeroCoef>
-5.4800

> <Gold.Chemscore.Hbond>
1.9230

> <Gold.Chemscore.Metal>
0.0000

> <Gold.Chemscore.Lipo>
109.0764

> <Gold.Chemscore.Internal_Hbond>
0.0000

> <Gold.Chemscore.DEClash>
0.0651

> <Gold.Chemscore.DEInternal>
1.0621

> <Gold.Chemscore.Rot>
2.4357

> <Gold.Chemscore.Internal.Correction>
   9.000000E+99

> <Gold.Chemscore.Hbonds>
donor molecule, donor type, donor heavy atom, donor atom, acceptor molecule, acceptor atom, score
      L1  H     5    46       P1  8028  0.98
      L1  H    12    45       P1  7948  0.30

> <Gold.Chemscore.Hbond.Weighted>
-6.4230

> <Gold.Chemscore.Metal.Weighted>
-0.0000

> <Gold.Chemscore.Lipo.Weighted>
-12.7619

> <Gold.Chemscore.Internal_Hbond.Weighted>
0.0000

> <Gold.Chemscore.DEClash.Weighted>
0.0651

> <Gold.Chemscore.DEInternal.Weighted>
1.0621

> <Gold.Chemscore.Rot.Weighted>
6.2353

> <Gold.Chemscore.Internal.Correction.Weighted>
   9.000000E+99

> <Gold.Protein.RotatedTorsions>
[ 6907 6896 6895 6894 ] final -111.52 input  -60.11 | X-H torsion
[ 7974 7965 7964 7962 ] final  153.72 input  175.53 | X-H torsion
[ 8008 7997 7996 7995 ] final   52.56 input   59.86 | X-H torsion
[ 10167 10162 10161 10158 ] final -125.62 input  -65.29 | X-H torsion
[ 10718 10713 10712 10709 ] final   37.92 input   66.30 | X-H torsion
[ 10763 10752 10751 10750 ] final   88.48 input  -60.55 | X-H torsion
[ 11005 11000 10999 10996 ] final   75.60 input  -57.11 | X-H torsion

> <Gold.Protein.ActiveResidues>
 VAL166  LYS551  ARG553  GLY616  TRP617  ASP618  TYR619  PRO620  LYS621  CYS622 
 ASP623  PHE694  ASN695  SER759  ASP760  ASP761  ALA762  ILE779  LEU786  VAL792 
 PHE793  MET794  SER795  GLU796  ALA797  LYS798  CYS799  TRP800  GLU811  SER814 

> <Gold.Protein.RotatedAtoms>
  150.7696  133.9223  159.3401 H   0  0  0  0  0  0  0  0  0  0  0  0  # atno 6907 bound_to 6896
  151.7113  135.0910  160.0277 H   0  0  0  0  0  0  0  0  0  0  0  0  # atno 6908 bound_to 6896
  152.3707  133.6378  159.6121 H   0  0  0  0  0  0  0  0  0  0  0  0  # atno 6909 bound_to 6896
  144.8136  139.6837  143.6131 H   0  0  0  0  0  0  0  0  0  0  0  0  # atno 7974 bound_to 7965
  155.4538  140.3459  155.4304 H   0  0  0  0  0  0  0  0  0  0  0  0  # atno 8008 bound_to 7997
  156.1204  140.1485  156.9242 H   0  0  0  0  0  0  0  0  0  0  0  0  # atno 8009 bound_to 7997
  154.4819  140.0867  156.7376 H   0  0  0  0  0  0  0  0  0  0  0  0  # atno 8010 bound_to 7997
  139.9802  143.5751  152.2381 H   0  0  0  0  0  0  0  0  0  0  0  0  # atno 10167 bound_to 10162
  157.3527  130.7607  149.6990 H   0  0  0  0  0  0  0  0  0  0  0  0  # atno 10718 bound_to 10713
  153.1773  135.4505  154.9981 H   0  0  0  0  0  0  0  0  0  0  0  0  # atno 10763 bound_to 10752
  154.8006  135.3254  154.7561 H   0  0  0  0  0  0  0  0  0  0  0  0  # atno 10764 bound_to 10752
  153.8030  135.6961  153.4907 H   0  0  0  0  0  0  0  0  0  0  0  0  # atno 10765 bound_to 10752
  139.9336  134.7531  156.1291 H   0  0  0  0  0  0  0  0  0  0  0  0  # atno 11005 bound_to 11000
  146.2437  139.6054  142.9474 LP  0  0  0  0  0  0  0  0  0  0  0  0  # atno 17320 bound_to 7965
  145.5266  141.0429  143.2406 LP  0  0  0  0  0  0  0  0  0  0  0  0  # atno 17321 bound_to 7965
  139.6416  144.7655  151.2328 LP  0  0  0  0  0  0  0  0  0  0  0  0  # atno 17342 bound_to 10162
  140.7492  143.6308  150.8425 LP  0  0  0  0  0  0  0  0  0  0  0  0  # atno 17343 bound_to 10162
  155.9724  130.4136  150.4090 LP  0  0  0  0  0  0  0  0  0  0  0  0  # atno 17370 bound_to 10713
  157.2156  131.0470  151.2575 LP  0  0  0  0  0  0  0  0  0  0  0  0  # atno 17371 bound_to 10713
  141.0939  133.6703  156.2600 LP  0  0  0  0  0  0  0  0  0  0  0  0  # atno 17394 bound_to 11000
  140.6135  134.5435  157.5537 LP  0  0  0  0  0  0  0  0  0  0  0  0  # atno 17395 bound_to 11000

$$$$
