#       Name:                AV-unprocessed.smi:1802
#       Creating user name   scv26
#       Creation time:       Fri Mar 27 08:53:03 2020


#       File generated by GOLD software.
#

@<TRIPOS>MOLECULE
AV-unprocessed.smi:1802
    45    46     1
SMALL
NO_CHARGES


@<TRIPOS>ATOM
      1 ****        -1.0484   3.6235   0.2565 C.3            1 S1                 0.0000
      2 ****        -2.0740   3.0055   1.2230 C.3            1 S1                 0.0000
      3 ****        -3.5202   3.0988   0.7012 C.3            1 S1                 0.0000
      4 ****        -3.7695   2.0953  -0.4341 C.3            1 S1                 0.0000
      5 ****        -3.3747   0.6716  -0.0106 C.3            1 S1                 0.0000
      6 ****        -1.9621   0.6228   0.4466 N.4            1 S1                 1.0000
      7 ****        -1.4989  -0.7623   0.7125 C.3            1 S1                 0.0000
      8 ****         0.0244  -0.9029   0.5551 C.3            1 S1                 0.0000
      9 ****         0.4974  -2.3568   0.7212 C.3            1 S1                 0.0000
     10 ****         1.9383  -2.4798   0.5305 N.am           1 S1                 0.0000
     11 ****         2.5516  -2.5146  -0.6619 C.2            1 S1                 0.0000
     12 ****         1.9497  -2.4361  -1.7335 O.2            1 S1                 0.0000
     13 ****         3.8835  -2.6392  -0.5243 N.am           1 S1                 0.0000
     14 ****         4.8699  -2.7067  -1.5440 C.2            1 S1                 0.0000
     15 ****         4.5871  -2.6773  -2.8559 N.2            1 S1                 0.0000
     16 ****         5.7331  -2.7566  -3.6365 N.2            1 S1                 0.0000
     17 ****         6.8336  -2.8424  -2.8839 C.2            1 S1                 0.0000
     18 ****         6.5776  -2.8378  -1.1476 S.3            1 S1                 0.0000
     19 ****        -1.7235   1.5483   1.5872 C.3            1 S1                 0.0000
     20 ****        -1.0063   3.0875  -0.6916 H              1 S1                 0.0000
     21 ****        -0.0471   3.6062   0.6876 H              1 S1                 0.0000
     22 ****        -1.2921   4.6636   0.0385 H              1 S1                 0.0000
     23 ****        -2.0227   3.5931   2.1407 H              1 S1                 0.0000
     24 ****        -4.2107   2.8880   1.5189 H              1 S1                 0.0000
     25 ****        -3.7435   4.1128   0.3676 H              1 S1                 0.0000
     26 ****        -4.8207   2.1182  -0.7237 H              1 S1                 0.0000
     27 ****        -3.2036   2.3863  -1.3198 H              1 S1                 0.0000
     28 ****        -4.0303   0.3171   0.7865 H              1 S1                 0.0000
     29 ****        -3.5131  -0.0004  -0.8586 H              1 S1                 0.0000
     30 ****        -1.8220  -1.0828   1.7042 H              1 S1                 0.0000
     31 ****        -1.9712  -1.4414   0.0012 H              1 S1                 0.0000
     32 ****         0.3130  -0.5343  -0.4301 H              1 S1                 0.0000
     33 ****         0.5428  -0.2776   1.2817 H              1 S1                 0.0000
     34 ****         0.2549  -2.7145   1.7223 H              1 S1                 0.0000
     35 ****        -0.0255  -3.0127   0.0229 H              1 S1                 0.0000
     36 ****         2.5056  -2.5521   1.3627 H              1 S1                 0.0000
     37 ****         4.2351  -2.6877   0.4205 H              1 S1                 0.0000
     38 ****         7.8029  -2.9096  -3.3548 H              1 S1                 0.0000
     39 ****        -0.6844   1.4979   1.9119 H              1 S1                 0.0000
     40 ****        -2.3273   1.2261   2.4372 H              1 S1                 0.0000
     41 ****        -1.4085   0.9616  -0.3276 H              1 S1                 0.0000
     42 ****         0.9542  -2.3411  -1.7421 LP             1 S1                 0.0000
     43 ****         2.4564  -2.4673  -2.5950 LP             1 S1                 0.0000
     44 ****         3.6612  -2.6067  -3.2271 LP             1 S1                 0.0000
     45 ****         5.7343  -2.7502  -4.6365 LP             1 S1                 0.0000
@<TRIPOS>BOND
    1    1    2 1     
    2    1   20 1     
    3    1   21 1     
    4    1   22 1     
    5    2   19 1     
    6    2    3 1     
    7    2   23 1     
    8    3    4 1     
    9    3   24 1     
   10    3   25 1     
   11    4    5 1     
   12    4   26 1     
   13    4   27 1     
   14    5    6 1     
   15    5   28 1     
   16    5   29 1     
   17    6    7 1     
   18    6   19 1     
   19    6   41 1     
   20    7    8 1     
   21    7   30 1     
   22    7   31 1     
   23    8    9 1     
   24    8   32 1     
   25    8   33 1     
   26    9   10 1     
   27    9   34 1     
   28    9   35 1     
   29   10   11 am    
   30   10   36 1     
   31   11   12 2     
   32   11   13 am    
   33   13   14 1     
   34   13   37 1     
   35   14   18 1     
   36   14   15 2     
   37   15   16 1     
   38   16   17 2     
   39   17   18 1     
   40   17   38 1     
   41   19   39 1     
   42   19   40 1     
   43   12   42 1     
   44   12   43 1     
   45   15   44 1     
   46   16   45 1     
@<TRIPOS>SUBSTRUCTURE
      1 S1             1
@<TRIPOS>SET
LONE_PAIRS      STATIC     ATOMS    <user>   **** ""
4 42 43 44 45
DONOR_HYDROGENS      STATIC     ATOMS    <user>   **** ""
3 41 36 37
ATOM$BLUE        STATIC     ATOMS    COLORGROUP SYSTEM
4 42 43 44 45
ATOM$RED        STATIC     ATOMS    COLORGROUP SYSTEM
3 41 36 37
