AV-unprocessed.smi:1451|AV-procd|sdf|5900|dock7
  -GOLD-   22720 5583D 1   1.00000     0.00000
 Structure written by MMmdl.
 47 48  0  0  0  0  0  0  0  0  2 V2000
  146.9192  138.8001  151.6112 C   0  0  0  0  0  0  0  0  0  0  0  0
  146.8681  139.3162  153.0600 C   0  0  1  0  0  0  0  0  0  0  0  0
  145.8642  138.5405  153.9328 C   0  0  0  0  0  0  0  0  0  0  0  0
  146.3978  137.1453  154.2864 C   0  0  0  0  0  0  0  0  0  0  0  0
  147.7936  137.2339  154.9228 C   0  0  0  0  0  0  0  0  0  0  0  0
  148.7385  137.9599  154.0369 N   0  3  2  0  0  0  0  0  0  0  0  0
  150.1348  137.9277  154.5450 C   0  0  0  0  0  0  0  0  0  0  0  0
  150.2256  138.0850  156.0754 C   0  0  0  0  0  0  0  0  0  0  0  0
  150.3818  139.4862  156.4551 N   0  0  0  0  0  0  0  0  0  0  0  0
  151.5297  140.1856  156.4341 C   0  0  0  0  0  0  0  0  0  0  0  0
  152.5876  139.7178  156.0163 O   0  0  0  0  0  0  0  0  0  0  0  0
  151.5207  141.6148  157.0021 C   0  0  0  0  0  0  0  0  0  0  0  0
  152.2994  141.7875  158.2414 N   0  0  0  0  0  0  0  0  0  0  0  0
  152.9092  140.6329  158.7705 C   0  0  0  0  0  0  0  0  0  0  0  0
  153.6432  140.6429  159.8988 C   0  0  0  0  0  0  0  0  0  0  0  0
  154.2373  139.3630  160.4646 C   0  0  0  0  0  0  0  0  0  0  0  0
  154.7479  139.5575  161.6805 F   0  0  0  0  0  0  0  0  0  0  0  0
  153.3058  138.4123  160.5490 F   0  0  0  0  0  0  0  0  0  0  0  0
  155.2084  138.9199  159.6674 F   0  0  0  0  0  0  0  0  0  0  0  0
  153.7739  141.9204  160.5725 C   0  0  0  0  0  0  0  0  0  0  0  0
  153.1843  143.0310  160.0881 C   0  0  0  0  0  0  0  0  0  0  0  0
  152.3859  143.0028  158.8605 C   0  0  0  0  0  0  0  0  0  0  0  0
  151.8214  144.0048  158.4224 O   0  0  0  0  0  0  0  0  0  0  0  0
  148.2603  139.3336  153.7250 C   0  0  0  0  0  0  0  0  0  0  0  0
  147.3010  137.7809  151.5532 H   0  0  0  0  0  0  0  0  0  0  0  0
  147.5642  139.4279  150.9962 H   0  0  0  0  0  0  0  0  0  0  0  0
  145.9283  138.8091  151.1567 H   0  0  0  0  0  0  0  0  0  0  0  0
  146.5194  140.3483  153.0050 H   0  0  0  0  0  0  0  0  0  0  0  0
  145.6844  139.0963  154.8539 H   0  0  0  0  0  0  0  0  0  0  0  0
  144.8991  138.4615  153.4311 H   0  0  0  0  0  0  0  0  0  0  0  0
  145.7095  136.6472  154.9697 H   0  0  0  0  0  0  0  0  0  0  0  0
  146.4398  136.5257  153.3903 H   0  0  0  0  0  0  0  0  0  0  0  0
  147.7381  137.7374  155.8893 H   0  0  0  0  0  0  0  0  0  0  0  0
  148.1621  136.2246  155.1098 H   0  0  0  0  0  0  0  0  0  0  0  0
  150.6339  137.0141  154.2196 H   0  0  0  0  0  0  0  0  0  0  0  0
  150.6905  138.7534  154.0984 H   0  0  0  0  0  0  0  0  0  0  0  0
  149.3554  137.6367  156.5568 H   0  0  0  0  0  0  0  0  0  0  0  0
  151.0882  137.5322  156.4482 H   0  0  0  0  0  0  0  0  0  0  0  0
  149.5551  139.9557  156.7960 H   0  0  0  0  0  0  0  0  0  0  0  0
  151.9098  142.2866  156.2350 H   0  0  0  0  0  0  0  0  0  0  0  0
  150.4831  141.9227  157.1420 H   0  0  0  0  0  0  0  0  0  0  0  0
  152.7291  139.7302  158.2041 H   0  0  0  0  0  0  0  0  0  0  0  0
  154.3567  141.9926  161.4792 H   0  0  0  0  0  0  0  0  0  0  0  0
  153.3045  143.9663  160.6154 H   0  0  0  0  0  0  0  0  0  0  0  0
  148.9675  139.8439  153.0713 H   0  0  0  0  0  0  0  0  0  0  0  0
  148.2206  139.9132  154.6486 H   0  0  0  0  0  0  0  0  0  0  0  0
  148.7476  137.4524  153.1638 H   0  0  0  0  0  0  0  0  0  0  0  0
  1  2  1  0  0  0  0
  1 25  1  0  0  0  0
  1 26  1  0  0  0  0
  1 27  1  0  0  0  0
  2 24  1  0  0  0  0
  2  3  1  0  0  0  0
  2 28  1  0  0  0  0
  3  4  1  0  0  0  0
  3 29  1  0  0  0  0
  3 30  1  0  0  0  0
  4  5  1  0  0  0  0
  4 31  1  0  0  0  0
  4 32  1  0  0  0  0
  5  6  1  0  0  0  0
  5 33  1  0  0  0  0
  5 34  1  0  0  0  0
  6  7  1  0  0  0  0
  6 24  1  0  0  0  0
  6 47  1  0  0  0  0
  7  8  1  0  0  0  0
  7 35  1  0  0  0  0
  7 36  1  0  0  0  0
  8  9  1  0  0  0  0
  8 37  1  0  0  0  0
  8 38  1  0  0  0  0
  9 10  1  0  0  0  0
  9 39  1  0  0  0  0
 10 11  2  0  0  0  0
 10 12  1  0  0  0  0
 12 13  1  0  0  0  0
 12 40  1  0  0  0  0
 12 41  1  0  0  0  0
 13 22  1  0  0  0  0
 13 14  1  0  0  0  0
 14 15  2  0  0  0  0
 14 42  1  0  0  0  0
 15 16  1  0  0  0  0
 15 20  1  0  0  0  0
 16 17  1  0  0  0  0
 16 18  1  0  0  0  0
 16 19  1  0  0  0  0
 20 21  2  0  0  0  0
 20 43  1  0  0  0  0
 21 22  1  0  0  0  0
 21 44  1  0  0  0  0
 22 23  2  0  0  0  0
 24 45  1  0  0  0  0
 24 46  1  0  0  0  0
M  CHG  1   6   1
M  END
> <s_m_source_file>
AV-unprocessed.smi

> <i_m_source_file_index>
1451

> <i_lp_mmshare_version>
43012

> <i_f3d_flags>
0

> <s_epik_input>
W0NIM11bQ0BASF0xW0NIMl1bQ0gyXVtDSDJdTihbQ0gyXTEpW0NIMl1bQ0gyXVtOSF1DKD1PKVtDSDJdbjJbY0hdYyhDKEYpKEYpRilbY0hdW2NIXWMyPU8=

> <s_epik_cmdline>
J2VwaWtfcHl0aG9uJywgJy1waCcsICc3LjAnLCAnLXRuJywgJzgnLCAnLW1hJywgJzIwMCcsICctbWV0YWxfYmluZGluZycsICctaW1hZScsICc8aW5maWxlLm1hZT4nLCAnLW9tYWUnLCAnPG91dGZpbGUubWFlPic=

> <r_lp_tautomer_probability>
1

> <r_epik_Ionization_Penalty>
0.00192452

> <r_epik_Ionization_Penalty_Charging>
0.00192444

> <r_epik_Ionization_Penalty_Neutral>
8.16761e-08

> <r_epik_State_Penalty>
0.00131115

> <r_epik_Charging_Adjusted_Penalty>
0.00323559

> <i_epik_Tot_Q>
1

> <i_epik_Tot_abs_Q>
1

> <r_epik_Metal_State_Penalty>
-0

> <b_epik_Metal_Only>
0

> <s_lp_Force_Field>
OPLS_2005

> <r_lp_Energy>
37.139

> <b_lp_Chiralities_Consistent>
1

> <s_lp_Variant>
AV-unprocessed.smi:1451-2

> <Gold.Version>
5.8.1

> <Gold.Id.Protein>
6NUR|6NUR_protein|mol2

> <Gold.PLP.Fitness>
48.1375

> <Gold.PLP.PLP>
-40.8154

> <Gold.PLP.part.hbond>
-2.0000

> <Gold.PLP.part.metal>
0.0000

> <Gold.PLP.part.buried>
-2.2012

> <Gold.PLP.part.nonpolar>
-36.5240

> <Gold.PLP.part.repulsive>
0.1027

> <Gold.PLP.ligand.clash>
0.0038

> <Gold.PLP.ligand.torsion>
0.8582

> <Gold.PLP.Chemscore.Hbond>
3.0000

> <Gold.PLP.Chemscore.CHOScore>
0.0000

> <Gold.PLP.Chemscore.Metal>
0.0000

> <Gold.Chemscore.Hbonds>
donor molecule, donor type, donor heavy atom, donor atom, acceptor molecule, acceptor atom, score
      L1  H     6    47       P1  7948  2.00
      P1  H  7997  8010       L1    11  1.00

> <Gold.PLP.Chemscore.Internal.Correction>
0.0424

> <Gold.Rescore>
     Score         DG    S(hbond)    S(metal)    S(lipo)     H(rot)  DE(clash)    DE(int)     intcor
     15.35     -17.30       1.99        0.00      89.55       2.08       0.07       1.88       ----

> <Gold.Chemscore.Fitness>
15.3469

> <Gold.Chemscore.DG>
-17.3020

> <Gold.Chemscore.ZeroCoef>
-5.4800

> <Gold.Chemscore.Hbond>
1.9938

> <Gold.Chemscore.Metal>
0.0000

> <Gold.Chemscore.Lipo>
89.5535

> <Gold.Chemscore.Internal_Hbond>
0.0000

> <Gold.Chemscore.DEClash>
0.0705

> <Gold.Chemscore.DEInternal>
1.8847

> <Gold.Chemscore.Rot>
2.0762

> <Gold.Chemscore.Internal.Correction>
   9.000000E+99

> <Gold.Chemscore.Hbonds>
donor molecule, donor type, donor heavy atom, donor atom, acceptor molecule, acceptor atom, score
      L1  H     6    47       P1  7948  1.00
      P1  H  7997  8010       L1    11  1.00

> <Gold.Chemscore.Hbond.Weighted>
-6.6593

> <Gold.Chemscore.Metal.Weighted>
-0.0000

> <Gold.Chemscore.Lipo.Weighted>
-10.4778

> <Gold.Chemscore.Internal_Hbond.Weighted>
0.0000

> <Gold.Chemscore.DEClash.Weighted>
0.0705

> <Gold.Chemscore.DEInternal.Weighted>
1.8847

> <Gold.Chemscore.Rot.Weighted>
5.3150

> <Gold.Chemscore.Internal.Correction.Weighted>
   9.000000E+99

> <Gold.Protein.RotatedTorsions>
[ 6907 6896 6895 6894 ] final  111.96 input  -60.11 | X-H torsion
[ 7974 7965 7964 7962 ] final  112.61 input  175.53 | X-H torsion
[ 8008 7997 7996 7995 ] final   82.50 input   59.86 | X-H torsion
[ 10167 10162 10161 10158 ] final  -56.69 input  -65.29 | X-H torsion
[ 10718 10713 10712 10709 ] final -178.01 input   66.30 | X-H torsion
[ 10763 10752 10751 10750 ] final  -44.23 input  -60.55 | X-H torsion
[ 11005 11000 10999 10996 ] final  143.39 input  -57.11 | X-H torsion

> <Gold.Protein.ActiveResidues>
 VAL166  LYS551  ARG553  GLY616  TRP617  ASP618  TYR619  PRO620  LYS621  CYS622 
 ASP623  PHE694  ASN695  SER759  ASP760  ASP761  ALA762  ILE779  LEU786  VAL792 
 PHE793  MET794  SER795  GLU796  ALA797  LYS798  CYS799  TRP800  GLU811  SER814 

> <Gold.Protein.RotatedAtoms>
  152.4942  133.8584  159.7237 H   0  0  0  0  0  0  0  0  0  0  0  0  # atno 6907 bound_to 6896
  150.9102  133.6998  159.2863 H   0  0  0  0  0  0  0  0  0  0  0  0  # atno 6908 bound_to 6896
  151.4410  135.1024  159.9722 H   0  0  0  0  0  0  0  0  0  0  0  0  # atno 6909 bound_to 6896
  145.2274  139.2835  143.4186 H   0  0  0  0  0  0  0  0  0  0  0  0  # atno 7974 bound_to 7965
  155.9115  140.3427  155.6102 H   0  0  0  0  0  0  0  0  0  0  0  0  # atno 8008 bound_to 7997
  155.7382  140.0804  157.2276 H   0  0  0  0  0  0  0  0  0  0  0  0  # atno 8009 bound_to 7997
  154.4056  140.1575  156.2573 H   0  0  0  0  0  0  0  0  0  0  0  0  # atno 8010 bound_to 7997
  140.6302  143.2456  151.5259 H   0  0  0  0  0  0  0  0  0  0  0  0  # atno 10167 bound_to 10162
  156.8379  130.9676  151.3102 H   0  0  0  0  0  0  0  0  0  0  0  0  # atno 10718 bound_to 10713
  154.0087  135.6684  153.4764 H   0  0  0  0  0  0  0  0  0  0  0  0  # atno 10763 bound_to 10752
  153.0630  135.5017  154.8133 H   0  0  0  0  0  0  0  0  0  0  0  0  # atno 10764 bound_to 10752
  154.7009  135.3078  154.9306 H   0  0  0  0  0  0  0  0  0  0  0  0  # atno 10765 bound_to 10752
  140.0550  134.9235  157.1085 H   0  0  0  0  0  0  0  0  0  0  0  0  # atno 11005 bound_to 11000
  146.3361  140.2598  142.8601 LP  0  0  0  0  0  0  0  0  0  0  0  0  # atno 17320 bound_to 7965
  144.9709  140.8367  143.5456 LP  0  0  0  0  0  0  0  0  0  0  0  0  # atno 17321 bound_to 7965
  139.5517  144.2377  152.1543 LP  0  0  0  0  0  0  0  0  0  0  0  0  # atno 17342 bound_to 10162
  140.1619  144.5017  150.6627 LP  0  0  0  0  0  0  0  0  0  0  0  0  # atno 17343 bound_to 10162
  157.6371  130.8776  149.9380 LP  0  0  0  0  0  0  0  0  0  0  0  0  # atno 17370 bound_to 10713
  156.0897  130.3664  150.0419 LP  0  0  0  0  0  0  0  0  0  0  0  0  # atno 17371 bound_to 10713
  140.3858  134.2238  155.7168 LP  0  0  0  0  0  0  0  0  0  0  0  0  # atno 17394 bound_to 11000
  141.1948  133.8120  157.0742 LP  0  0  0  0  0  0  0  0  0  0  0  0  # atno 17395 bound_to 11000

$$$$
