AV-unprocessed.smi:224|AV-procd|sdf|1713|dock9
  -GOLD-   2262020183D 1   1.00000     0.00000
 Structure written by MMmdl.
 56 59  0  0  0  0  0  0  0  0  2 V2000
  152.6991  143.5812  159.4105 C   0  0  0  0  0  0  0  0  0  0  0  0
  151.9042  143.2378  158.1440 C   0  0  2  0  0  0  0  0  0  0  0  0
  150.6176  143.8086  158.2733 O   0  0  0  0  0  0  0  0  0  0  0  0
  151.7748  141.7136  157.9478 C   0  0  0  0  0  0  0  0  0  0  0  0
  151.3006  141.3409  156.5888 N   0  3  1  0  0  0  0  0  0  0  0  0
  151.8358  140.0424  156.0971 C   0  0  0  0  0  0  0  0  0  0  0  0
  151.4249  139.7991  154.6339 C   0  0  0  0  0  0  0  0  0  0  0  0
  149.9784  139.9224  154.4636 N   0  0  0  0  0  0  0  0  0  0  0  0
  149.1949  138.8146  154.5678 C   0  0  0  0  0  0  0  0  0  0  0  0
  149.5892  137.7873  155.3674 N   0  0  0  0  0  0  0  0  0  0  0  0
  148.8314  136.6947  155.4941 C   0  0  0  0  0  0  0  0  0  0  0  0
  147.6611  136.4215  154.9169 N   0  0  0  0  0  0  0  0  0  0  0  0
  147.2605  137.4402  154.1045 C   0  0  0  0  0  0  0  0  0  0  0  0
  147.9598  138.6595  153.8731 C   0  0  0  0  0  0  0  0  0  0  0  0
  147.2491  139.4425  152.9704 N   0  0  0  0  0  0  0  0  0  0  0  0
  146.1883  138.7344  152.6948 C   0  0  0  0  0  0  0  0  0  0  0  0
  146.1125  137.5189  153.3356 N   0  0  0  0  0  0  0  0  0  0  0  0
  145.0498  136.5337  153.2059 C   0  0  0  0  0  0  0  0  0  0  0  0
  145.3270  135.4681  152.1203 C   0  0  2  0  0  0  0  0  0  0  0  0
  145.9932  136.0836  151.0307 O   0  0  0  0  0  0  0  0  0  0  0  0
  144.0762  134.7704  151.5940 C   0  0  0  0  0  0  0  0  0  0  0  0
  144.5847  133.3777  151.2500 C   0  0  0  0  0  0  0  0  0  0  0  0
  145.4791  133.1044  152.3149 O   0  0  0  0  0  0  0  0  0  0  0  0
  146.1943  134.2965  152.6233 C   0  0  0  0  0  0  0  0  0  0  0  0
  149.4249  141.1880  154.9426 C   0  0  0  0  0  0  0  0  0  0  0  0
  149.8234  141.4718  156.4086 C   0  0  1  0  0  0  0  0  0  0  0  0
  149.0067  140.6244  157.4084 C   0  0  0  0  0  0  0  0  0  0  0  0
  153.7124  143.1824  159.3569 H   0  0  0  0  0  0  0  0  0  0  0  0
  152.2260  143.1689  160.3024 H   0  0  0  0  0  0  0  0  0  0  0  0
  152.7779  144.6605  159.5450 H   0  0  0  0  0  0  0  0  0  0  0  0
  152.4029  143.7016  157.2938 H   0  0  0  0  0  0  0  0  0  0  0  0
  150.2317  143.8957  157.4155 H   0  0  0  0  0  0  0  0  0  0  0  0
  152.7319  141.2257  158.1387 H   0  0  0  0  0  0  0  0  0  0  0  0
  151.0807  141.3285  158.6969 H   0  0  0  0  0  0  0  0  0  0  0  0
  152.9229  140.0288  156.1600 H   0  0  0  0  0  0  0  0  0  0  0  0
  151.4807  139.2312  156.7333 H   0  0  0  0  0  0  0  0  0  0  0  0
  151.9020  140.5430  153.9946 H   0  0  0  0  0  0  0  0  0  0  0  0
  151.7864  138.8311  154.2843 H   0  0  0  0  0  0  0  0  0  0  0  0
  149.2178  135.9304  156.1521 H   0  0  0  0  0  0  0  0  0  0  0  0
  145.4257  139.0810  152.0123 H   0  0  0  0  0  0  0  0  0  0  0  0
  144.9070  136.0548  154.1755 H   0  0  0  0  0  0  0  0  0  0  0  0
  144.1201  137.0603  152.9869 H   0  0  0  0  0  0  0  0  0  0  0  0
  146.9208  136.0875  151.2113 H   0  0  0  0  0  0  0  0  0  0  0  0
  143.3326  134.6814  152.3864 H   0  0  0  0  0  0  0  0  0  0  0  0
  143.6057  135.2804  150.7523 H   0  0  0  0  0  0  0  0  0  0  0  0
  143.7868  132.6371  151.1934 H   0  0  0  0  0  0  0  0  0  0  0  0
  145.1264  133.3783  150.3029 H   0  0  0  0  0  0  0  0  0  0  0  0
  147.1729  134.2714  152.1408 H   0  0  0  0  0  0  0  0  0  0  0  0
  146.3642  134.3386  153.6997 H   0  0  0  0  0  0  0  0  0  0  0  0
  149.8172  141.9788  154.3024 H   0  0  0  0  0  0  0  0  0  0  0  0
  148.3422  141.2353  154.8416 H   0  0  0  0  0  0  0  0  0  0  0  0
  149.5710  142.5152  156.6024 H   0  0  0  0  0  0  0  0  0  0  0  0
  147.9379  140.7355  157.2233 H   0  0  0  0  0  0  0  0  0  0  0  0
  149.1837  140.9318  158.4388 H   0  0  0  0  0  0  0  0  0  0  0  0
  149.2380  139.5625  157.3373 H   0  0  0  0  0  0  0  0  0  0  0  0
  151.6897  142.0408  155.9737 H   0  0  0  0  0  0  0  0  0  0  0  0
  1  2  1  0  0  0  0
  1 28  1  0  0  0  0
  1 29  1  0  0  0  0
  1 30  1  0  0  0  0
  2  3  1  0  0  0  0
  2  4  1  0  0  0  0
  2 31  1  0  0  0  0
  3 32  1  0  0  0  0
  4  5  1  0  0  0  0
  4 33  1  0  0  0  0
  4 34  1  0  0  0  0
  5 26  1  0  0  0  0
  5  6  1  0  0  0  0
  5 56  1  0  0  0  0
  6  7  1  0  0  0  0
  6 35  1  0  0  0  0
  6 36  1  0  0  0  0
  7  8  1  0  0  0  0
  7 37  1  0  0  0  0
  7 38  1  0  0  0  0
  8  9  1  0  0  0  0
  8 25  1  0  0  0  0
  9 14  1  0  0  0  0
  9 10  2  0  0  0  0
 10 11  1  0  0  0  0
 11 12  2  0  0  0  0
 11 39  1  0  0  0  0
 12 13  1  0  0  0  0
 13 17  1  0  0  0  0
 13 14  2  0  0  0  0
 14 15  1  0  0  0  0
 15 16  2  0  0  0  0
 16 17  1  0  0  0  0
 16 40  1  0  0  0  0
 17 18  1  0  0  0  0
 18 19  1  0  0  0  0
 18 41  1  0  0  0  0
 18 42  1  0  0  0  0
 19 24  1  0  0  0  0
 19 20  1  0  0  0  0
 19 21  1  0  0  0  0
 20 43  1  0  0  0  0
 21 22  1  0  0  0  0
 21 44  1  0  0  0  0
 21 45  1  0  0  0  0
 22 23  1  0  0  0  0
 22 46  1  0  0  0  0
 22 47  1  0  0  0  0
 23 24  1  0  0  0  0
 24 48  1  0  0  0  0
 24 49  1  0  0  0  0
 25 26  1  0  0  0  0
 25 50  1  0  0  0  0
 25 51  1  0  0  0  0
 26 27  1  0  0  0  0
 26 52  1  0  0  0  0
 27 53  1  0  0  0  0
 27 54  1  0  0  0  0
 27 55  1  0  0  0  0
M  CHG  1   5   1
M  END
> <s_m_source_file>
AV-unprocessed.smi

> <i_m_source_file_index>
224

> <i_lp_mmshare_version>
43012

> <i_f3d_flags>
0

> <s_epik_input>
W0NIM11bQ0BIXShbT0hdKVtDSDJdTjFbQ0gyXVtDSDJdTihbQ0gyXVtDQEhdMVtDSDNdKWMobltjSF1uMiljKGMyMyluW2NIXW4zW0NIMl1bQ0BAXTQoW09IXSlbQ0gyXVtDSDJdT1tDSDJdNA==

> <s_epik_cmdline>
J2VwaWtfcHl0aG9uJywgJy1waCcsICc3LjAnLCAnLXRuJywgJzgnLCAnLW1hJywgJzIwMCcsICctbWV0YWxfYmluZGluZycsICctaW1hZScsICc8aW5maWxlLm1hZT4nLCAnLW9tYWUnLCAnPG91dGZpbGUubWFlPic=

> <r_lp_tautomer_probability>
1

> <r_epik_Ionization_Penalty>
0.00516958

> <r_epik_Ionization_Penalty_Charging>
0.00509693

> <r_epik_Ionization_Penalty_Neutral>
7.26542e-05

> <r_epik_State_Penalty>
-0

> <r_epik_Charging_Adjusted_Penalty>
0.00509693

> <i_epik_Tot_Q>
1

> <i_epik_Tot_abs_Q>
1

> <r_epik_Metal_State_Penalty>
-0

> <b_epik_Metal_Only>
0

> <s_lp_Force_Field>
OPLS_2005

> <r_lp_Energy>
51.1284

> <b_lp_Chiralities_Consistent>
1

> <s_lp_Variant>
AV-unprocessed.smi:224-7

> <Gold.Version>
5.8.1

> <Gold.Id.Protein>
6NUR|6NUR_protein|mol2

> <Gold.PLP.Fitness>
44.4668

> <Gold.PLP.PLP>
-36.9985

> <Gold.PLP.part.hbond>
-2.6652

> <Gold.PLP.part.metal>
0.0000

> <Gold.PLP.part.buried>
-1.0804

> <Gold.PLP.part.nonpolar>
-36.1501

> <Gold.PLP.part.repulsive>
2.5622

> <Gold.PLP.ligand.clash>
0.0000

> <Gold.PLP.ligand.torsion>
1.9060

> <Gold.PLP.Chemscore.Hbond>
2.0000

> <Gold.PLP.Chemscore.CHOScore>
1.6325

> <Gold.PLP.Chemscore.Metal>
0.0000

> <Gold.Chemscore.Hbonds>
donor molecule, donor type, donor heavy atom, donor atom, acceptor molecule, acceptor atom, score
      L1  H     3    32       P1  8028  0.23
      L1  H    20    43       P1  7948  0.84
      L1  C    16    40       P1 10171  0.52
      L1  C    16    40       P1 10175  0.97

> <Gold.PLP.Chemscore.Internal.Correction>
0.3827

> <Gold.Rescore>
     Score         DG    S(hbond)    S(metal)    S(lipo)     H(rot)  DE(clash)    DE(int)     intcor
     10.36     -13.34       1.76        0.00      83.04       3.02       1.26       1.72       ----

> <Gold.Chemscore.Fitness>
10.3588

> <Gold.Chemscore.DG>
-13.3389

> <Gold.Chemscore.ZeroCoef>
-5.4800

> <Gold.Chemscore.Hbond>
1.7610

> <Gold.Chemscore.Metal>
0.0000

> <Gold.Chemscore.Lipo>
83.0448

> <Gold.Chemscore.Internal_Hbond>
0.0000

> <Gold.Chemscore.DEClash>
1.2604

> <Gold.Chemscore.DEInternal>
1.7197

> <Gold.Chemscore.Rot>
3.0231

> <Gold.Chemscore.Internal.Correction>
   9.000000E+99

> <Gold.Chemscore.Hbonds>
donor molecule, donor type, donor heavy atom, donor atom, acceptor molecule, acceptor atom, score
      L1  H     3    32       P1  8028  0.20
      L1  H    20    43       P1  7948  0.82

> <Gold.Chemscore.Hbond.Weighted>
-5.8817

> <Gold.Chemscore.Metal.Weighted>
-0.0000

> <Gold.Chemscore.Lipo.Weighted>
-9.7162

> <Gold.Chemscore.Internal_Hbond.Weighted>
0.0000

> <Gold.Chemscore.DEClash.Weighted>
1.2604

> <Gold.Chemscore.DEInternal.Weighted>
1.7197

> <Gold.Chemscore.Rot.Weighted>
7.7391

> <Gold.Chemscore.Internal.Correction.Weighted>
   9.000000E+99

> <Gold.Protein.RotatedTorsions>
[ 6907 6896 6895 6894 ] final  114.14 input  -60.11 | X-H torsion
[ 7974 7965 7964 7962 ] final  111.05 input  175.53 | X-H torsion
[ 8008 7997 7996 7995 ] final   -1.39 input   59.86 | X-H torsion
[ 10167 10162 10161 10158 ] final -122.03 input  -65.29 | X-H torsion
[ 10718 10713 10712 10709 ] final -125.60 input   66.30 | X-H torsion
[ 10763 10752 10751 10750 ] final  118.22 input  -60.55 | X-H torsion
[ 11005 11000 10999 10996 ] final    9.70 input  -57.11 | X-H torsion

> <Gold.Protein.ActiveResidues>
 VAL166  LYS551  ARG553  GLY616  TRP617  ASP618  TYR619  PRO620  LYS621  CYS622 
 ASP623  PHE694  ASN695  SER759  ASP760  ASP761  ALA762  ILE779  LEU786  VAL792 
 PHE793  MET794  SER795  GLU796  ALA797  LYS798  CYS799  TRP800  GLU811  SER814 

> <Gold.Protein.RotatedAtoms>
  152.4820  133.8277  159.7086 H   0  0  0  0  0  0  0  0  0  0  0  0  # atno 6907 bound_to 6896
  150.8876  133.7277  159.2920 H   0  0  0  0  0  0  0  0  0  0  0  0  # atno 6908 bound_to 6896
  151.4760  135.1053  159.9817 H   0  0  0  0  0  0  0  0  0  0  0  0  # atno 6909 bound_to 6896
  145.2471  139.2754  143.4087 H   0  0  0  0  0  0  0  0  0  0  0  0  # atno 7974 bound_to 7965
  154.6473  140.2560  155.7253 H   0  0  0  0  0  0  0  0  0  0  0  0  # atno 8008 bound_to 7997
  156.2558  140.2875  156.0813 H   0  0  0  0  0  0  0  0  0  0  0  0  # atno 8009 bound_to 7997
  155.1504  140.0382  157.2810 H   0  0  0  0  0  0  0  0  0  0  0  0  # atno 8010 bound_to 7997
  140.0187  143.5367  152.2231 H   0  0  0  0  0  0  0  0  0  0  0  0  # atno 10167 bound_to 10162
  156.1690  130.6654  151.0154 H   0  0  0  0  0  0  0  0  0  0  0  0  # atno 10718 bound_to 10713
  153.5643  135.3514  155.2812 H   0  0  0  0  0  0  0  0  0  0  0  0  # atno 10763 bound_to 10752
  154.8691  135.4144  154.2795 H   0  0  0  0  0  0  0  0  0  0  0  0  # atno 10764 bound_to 10752
  153.3548  135.7057  153.6829 H   0  0  0  0  0  0  0  0  0  0  0  0  # atno 10765 bound_to 10752
  140.5228  134.0542  155.7850 H   0  0  0  0  0  0  0  0  0  0  0  0  # atno 11005 bound_to 11000
  146.3312  140.2852  142.8612 LP  0  0  0  0  0  0  0  0  0  0  0  0  # atno 17320 bound_to 7965
  144.9536  140.8203  143.5557 LP  0  0  0  0  0  0  0  0  0  0  0  0  # atno 17321 bound_to 7965
  139.6155  144.7618  151.2856 LP  0  0  0  0  0  0  0  0  0  0  0  0  # atno 17342 bound_to 10162
  140.7351  143.6745  150.8053 LP  0  0  0  0  0  0  0  0  0  0  0  0  # atno 17343 bound_to 10162
  157.6789  131.0843  150.7422 LP  0  0  0  0  0  0  0  0  0  0  0  0  # atno 17370 bound_to 10713
  156.7482  130.4760  149.5462 LP  0  0  0  0  0  0  0  0  0  0  0  0  # atno 17371 bound_to 10713
  141.1324  133.9279  157.2506 LP  0  0  0  0  0  0  0  0  0  0  0  0  # atno 17394 bound_to 11000
  139.9596  135.0157  156.9225 LP  0  0  0  0  0  0  0  0  0  0  0  0  # atno 17395 bound_to 11000

$$$$
