AV-unprocessed.smi:1723|AV-procd|sdf|6946|dock2
  -GOLD-   22720 8153D 1   1.00000     0.00000
 Structure written by MMmdl.
 38 38  0  0  0  0  0  0  0  0  1 V2000
  147.2406  142.1078  154.0292 C   0  0  0  0  0  0  0  0  0  0  0  0
  147.9954  140.7827  154.1810 C   0  0  0  0  0  0  0  0  0  0  0  0
  149.2810  140.9283  155.0076 C   0  0  0  0  0  0  0  0  0  0  0  0
  149.9783  139.5859  155.2545 C   0  0  0  0  0  0  0  0  0  0  0  0
  150.4689  139.0949  154.0122 O   0  0  0  0  0  0  0  0  0  0  0  0
  151.5822  138.2089  154.0990 C   0  0  1  0  0  0  0  0  0  0  0  0
  152.7260  138.9706  154.7844 C   0  0  0  0  0  0  0  0  0  0  0  0
  151.1978  136.9486  154.8908 C   0  0  0  0  0  0  0  0  0  0  0  0
  151.8662  136.6218  155.8716 O   0  0  0  0  0  0  0  0  0  0  0  0
  150.1227  136.2794  154.4298 N   0  0  0  0  0  0  0  0  0  0  0  0
  149.4870  135.1493  154.9690 C   0  0  0  0  0  0  0  0  0  0  0  0
  149.7413  133.8689  154.5931 C   0  0  0  0  0  0  0  0  0  0  0  0
  149.0627  132.7371  155.2017 C   0  0  0  0  0  0  0  0  0  0  0  0
  149.4004  131.3062  154.8124 C   0  0  0  0  0  0  0  0  0  0  0  0
  148.6643  130.4299  155.4972 F   0  0  0  0  0  0  0  0  0  0  0  0
  149.1640  131.1223  153.5145 F   0  0  0  0  0  0  0  0  0  0  0  0
  150.6867  131.0406  155.0411 F   0  0  0  0  0  0  0  0  0  0  0  0
  148.1856  133.0202  156.1827 C   0  0  0  0  0  0  0  0  0  0  0  0
  147.9183  134.3342  156.5747 N   0  0  0  0  0  0  0  0  0  0  0  0
  148.5134  135.4233  156.0386 C   0  0  0  0  0  0  0  0  0  0  0  0
  148.2311  136.5496  156.4456 O   0  0  0  0  0  0  0  0  0  0  0  0
  147.2395  134.4648  157.3109 H   0  0  0  0  0  0  0  0  0  0  0  0
  146.3346  141.9738  153.4377 H   0  0  0  0  0  0  0  0  0  0  0  0
  147.8561  142.8567  153.5301 H   0  0  0  0  0  0  0  0  0  0  0  0
  146.9475  142.5071  155.0005 H   0  0  0  0  0  0  0  0  0  0  0  0
  147.3395  140.0491  154.6511 H   0  0  0  0  0  0  0  0  0  0  0  0
  148.2377  140.3916  153.1924 H   0  0  0  0  0  0  0  0  0  0  0  0
  149.9683  141.6048  154.4981 H   0  0  0  0  0  0  0  0  0  0  0  0
  149.0462  141.3915  155.9669 H   0  0  0  0  0  0  0  0  0  0  0  0
  150.7888  139.7238  155.9710 H   0  0  0  0  0  0  0  0  0  0  0  0
  149.2751  138.8709  155.6844 H   0  0  0  0  0  0  0  0  0  0  0  0
  151.9067  137.9342  153.0932 H   0  0  0  0  0  0  0  0  0  0  0  0
  153.6099  138.3416  154.8964 H   0  0  0  0  0  0  0  0  0  0  0  0
  152.4374  139.3237  155.7753 H   0  0  0  0  0  0  0  0  0  0  0  0
  153.0152  139.8423  154.1969 H   0  0  0  0  0  0  0  0  0  0  0  0
  149.7290  136.6099  153.5604 H   0  0  0  0  0  0  0  0  0  0  0  0
  150.4765  133.6509  153.8356 H   0  0  0  0  0  0  0  0  0  0  0  0
  147.6340  132.2770  156.7393 H   0  0  0  0  0  0  0  0  0  0  0  0
  1  2  1  0  0  0  0
  1 23  1  0  0  0  0
  1 24  1  0  0  0  0
  1 25  1  0  0  0  0
  2  3  1  0  0  0  0
  2 26  1  0  0  0  0
  2 27  1  0  0  0  0
  3  4  1  0  0  0  0
  3 28  1  0  0  0  0
  3 29  1  0  0  0  0
  4  5  1  0  0  0  0
  4 30  1  0  0  0  0
  4 31  1  0  0  0  0
  5  6  1  0  0  0  0
  6  7  1  0  0  0  0
  6  8  1  0  0  0  0
  6 32  1  0  0  0  0
  7 33  1  0  0  0  0
  7 34  1  0  0  0  0
  7 35  1  0  0  0  0
  8  9  2  0  0  0  0
  8 10  1  0  0  0  0
 10 11  1  0  0  0  0
 10 36  1  0  0  0  0
 11 20  1  0  0  0  0
 11 12  2  0  0  0  0
 12 13  1  0  0  0  0
 12 37  1  0  0  0  0
 13 14  1  0  0  0  0
 13 18  2  0  0  0  0
 14 15  1  0  0  0  0
 14 16  1  0  0  0  0
 14 17  1  0  0  0  0
 18 19  1  0  0  0  0
 18 38  1  0  0  0  0
 19 22  1  0  0  0  0
 19 20  1  0  0  0  0
 20 21  2  0  0  0  0
M  END
> <s_m_source_file>
AV-unprocessed.smi

> <i_m_source_file_index>
1723

> <i_lp_mmshare_version>
43012

> <i_f3d_flags>
0

> <s_epik_input>
W0NIM11bQ0gyXVtDSDJdW0NIMl1PW0NASF0oW0NIM10pQyg9TylbTkhdYzFbY0hdYyhDKEYpKEYpRilbY0hdW25IXWMxPU8=

> <s_epik_cmdline>
J2VwaWtfcHl0aG9uJywgJy1waCcsICc3LjAnLCAnLXRuJywgJzgnLCAnLW1hJywgJzIwMCcsICctbWV0YWxfYmluZGluZycsICctaW1hZScsICc8aW5maWxlLm1hZT4nLCAnLW9tYWUnLCAnPG91dGZpbGUubWFlPic=

> <r_lp_tautomer_probability>
0.999

> <r_epik_Ionization_Penalty>
0.00763408

> <r_epik_Ionization_Penalty_Charging>
0.00763398

> <r_epik_Ionization_Penalty_Neutral>
9.29819e-08

> <r_epik_State_Penalty>
0.00571302

> <r_epik_Charging_Adjusted_Penalty>
0.013347

> <i_epik_Tot_Q>
0

> <i_epik_Tot_abs_Q>
0

> <r_epik_Metal_State_Penalty>
0.392814

> <b_epik_Metal_Only>
0

> <s_lp_Force_Field>
OPLS_2005

> <r_lp_Energy>
18.7704

> <b_lp_Chiralities_Consistent>
1

> <s_lp_Variant>
AV-unprocessed.smi:1723-2

> <Gold.Version>
5.8.1

> <Gold.Id.Protein>
6NUR|6NUR_protein|mol2

> <Gold.PLP.Fitness>
36.2844

> <Gold.PLP.PLP>
-31.7238

> <Gold.PLP.part.hbond>
-3.1972

> <Gold.PLP.part.metal>
0.0000

> <Gold.PLP.part.buried>
-2.6225

> <Gold.PLP.part.nonpolar>
-26.8873

> <Gold.PLP.part.repulsive>
0.3097

> <Gold.PLP.ligand.clash>
1.0166

> <Gold.PLP.ligand.torsion>
0.9824

> <Gold.PLP.Chemscore.Hbond>
2.4615

> <Gold.PLP.Chemscore.CHOScore>
0.0000

> <Gold.PLP.Chemscore.Metal>
0.0000

> <Gold.Chemscore.Hbonds>
donor molecule, donor type, donor heavy atom, donor atom, acceptor molecule, acceptor atom, score
      L1  H    10    36       P1  7948  0.98
      P1  H  7989  7998       L1     5  0.44
      P1  H 10752 10765       L1     9  1.00

> <Gold.PLP.Chemscore.Internal.Correction>
0.1573

> <Gold.Rescore>
     Score         DG    S(hbond)    S(metal)    S(lipo)     H(rot)  DE(clash)    DE(int)     intcor
     12.10     -13.46       1.61        0.00      65.84       1.99       0.26       1.10       ----

> <Gold.Chemscore.Fitness>
12.0956

> <Gold.Chemscore.DG>
-13.4556

> <Gold.Chemscore.ZeroCoef>
-5.4800

> <Gold.Chemscore.Hbond>
1.6103

> <Gold.Chemscore.Metal>
0.0000

> <Gold.Chemscore.Lipo>
65.8421

> <Gold.Chemscore.Internal_Hbond>
0.0000

> <Gold.Chemscore.DEClash>
0.2586

> <Gold.Chemscore.DEInternal>
1.1014

> <Gold.Chemscore.Rot>
1.9946

> <Gold.Chemscore.Internal.Correction>
   9.000000E+99

> <Gold.Chemscore.Hbonds>
donor molecule, donor type, donor heavy atom, donor atom, acceptor molecule, acceptor atom, score
      L1  H    10    36       P1  7948  0.42
      P1  H  7989  7998       L1     5  0.01
      P1  H 10752 10765       L1     9  0.30

> <Gold.Chemscore.Hbond.Weighted>
-5.3783

> <Gold.Chemscore.Metal.Weighted>
-0.0000

> <Gold.Chemscore.Lipo.Weighted>
-7.7035

> <Gold.Chemscore.Internal_Hbond.Weighted>
0.0000

> <Gold.Chemscore.DEClash.Weighted>
0.2586

> <Gold.Chemscore.DEInternal.Weighted>
1.1014

> <Gold.Chemscore.Rot.Weighted>
5.1062

> <Gold.Chemscore.Internal.Correction.Weighted>
   9.000000E+99

> <Gold.Protein.RotatedTorsions>
[ 6907 6896 6895 6894 ] final  114.38 input  -60.11 | X-H torsion
[ 7974 7965 7964 7962 ] final  -30.26 input  175.53 | X-H torsion
[ 8008 7997 7996 7995 ] final   55.44 input   59.86 | X-H torsion
[ 10167 10162 10161 10158 ] final  129.62 input  -65.29 | X-H torsion
[ 10718 10713 10712 10709 ] final  -54.98 input   66.30 | X-H torsion
[ 10763 10752 10751 10750 ] final -148.78 input  -60.55 | X-H torsion
[ 11005 11000 10999 10996 ] final -126.08 input  -57.11 | X-H torsion

> <Gold.Protein.ActiveResidues>
 VAL166  LYS551  ARG553  GLY616  TRP617  ASP618  TYR619  PRO620  LYS621  CYS622 
 ASP623  PHE694  ASN695  SER759  ASP760  ASP761  ALA762  ILE779  LEU786  VAL792 
 PHE793  MET794  SER795  GLU796  ALA797  LYS798  CYS799  TRP800  GLU811  SER814 

> <Gold.Protein.RotatedAtoms>
  152.4806  133.8245  159.7070 H   0  0  0  0  0  0  0  0  0  0  0  0  # atno 6907 bound_to 6896
  150.8853  133.7307  159.2927 H   0  0  0  0  0  0  0  0  0  0  0  0  # atno 6908 bound_to 6896
  151.4797  135.1055  159.9826 H   0  0  0  0  0  0  0  0  0  0  0  0  # atno 6909 bound_to 6896
  146.1156  140.5518  142.8758 H   0  0  0  0  0  0  0  0  0  0  0  0  # atno 7974 bound_to 7965
  155.5011  140.3474  155.4371 H   0  0  0  0  0  0  0  0  0  0  0  0  # atno 8008 bound_to 7997
  156.0913  140.1411  156.9616 H   0  0  0  0  0  0  0  0  0  0  0  0  # atno 8009 bound_to 7997
  154.4637  140.0925  156.6939 H   0  0  0  0  0  0  0  0  0  0  0  0  # atno 8010 bound_to 7997
  139.5469  144.6781  151.4445 H   0  0  0  0  0  0  0  0  0  0  0  0  # atno 10167 bound_to 10162
  156.1406  130.4155  150.0110 H   0  0  0  0  0  0  0  0  0  0  0  0  # atno 10718 bound_to 10713
  154.8214  135.3326  154.7027 H   0  0  0  0  0  0  0  0  0  0  0  0  # atno 10763 bound_to 10752
  153.7659  135.6929  153.4920 H   0  0  0  0  0  0  0  0  0  0  0  0  # atno 10764 bound_to 10752
  153.2078  135.4493  155.0292 H   0  0  0  0  0  0  0  0  0  0  0  0  # atno 10765 bound_to 10752
  140.9710  134.0805  157.3869 H   0  0  0  0  0  0  0  0  0  0  0  0  # atno 11005 bound_to 11000
  144.7550  140.5284  143.6775 LP  0  0  0  0  0  0  0  0  0  0  0  0  # atno 17320 bound_to 7965
  145.5574  139.1478  143.3360 LP  0  0  0  0  0  0  0  0  0  0  0  0  # atno 17321 bound_to 7965
  140.6720  143.8273  150.7011 LP  0  0  0  0  0  0  0  0  0  0  0  0  # atno 17342 bound_to 10162
  140.1700  143.4203  152.2007 LP  0  0  0  0  0  0  0  0  0  0  0  0  # atno 17343 bound_to 10162
  156.7997  130.9286  151.3646 LP  0  0  0  0  0  0  0  0  0  0  0  0  # atno 17370 bound_to 10713
  157.6572  130.8934  149.9753 LP  0  0  0  0  0  0  0  0  0  0  0  0  # atno 17371 bound_to 10713
  139.8912  135.0117  156.6780 LP  0  0  0  0  0  0  0  0  0  0  0  0  # atno 17394 bound_to 11000
  140.7329  133.9044  155.8223 LP  0  0  0  0  0  0  0  0  0  0  0  0  # atno 17395 bound_to 11000

$$$$
