#       Name:                AV-unprocessed.smi:890
#       Creating user name   scv26
#       Creation time:       Fri Mar 27 01:55:05 2020


#       File generated by GOLD software.
#

@<TRIPOS>MOLECULE
AV-unprocessed.smi:890
    56    59     1
SMALL
NO_CHARGES


@<TRIPOS>ATOM
      1 ****         1.2364   2.3942   0.6407 O.2            1 S1                 0.0000
      2 ****         0.9031   1.2125   0.5712 C.2            1 S1                 0.0000
      3 ****         1.7371   0.1581   0.5678 N.am           1 S1                 0.0000
      4 ****         3.1628   0.1103   0.6233 C.ar           1 S1                 0.0000
      5 ****         3.9942   1.2609   0.6647 C.ar           1 S1                 0.0000
      6 ****         5.3944   1.1118   0.7142 C.ar           1 S1                 0.0000
      7 ****         5.9478  -0.1809   0.7209 C.ar           1 S1                 0.0000
      8 ****         5.1335  -1.2552   0.6801 N.pl3          1 S1                 1.0000
      9 ****         3.7816  -1.1673   0.6330 C.ar           1 S1                 0.0000
     10 ****         3.0277  -2.3533   0.5871 N.3            1 S1                 0.0000
     11 ****         3.2170  -3.2664   1.7022 C.3            1 S1                 0.0000
     12 ****         2.6162  -4.5978   1.2436 C.3            1 S1                 0.0000
     13 ****         2.6103  -4.5213  -0.2885 C.3            1 S1                 0.0000
     14 ****         3.2024  -3.1481  -0.6168 C.3            1 S1                 0.0000
     15 ****        -0.3741   0.8131   0.4868 N.am           1 S1                 0.0000
     16 ****        -1.5346   1.6991   0.4596 C.3            1 S1                 0.0000
     17 ****        -2.7875   0.9267   0.9071 C.3            1 S1                 0.0000
     18 ****        -4.0542   1.7961   0.7909 C.3            1 S1                 0.0000
     19 ****        -4.2315   2.3446  -0.5780 N.4            1 S1                 1.0000
     20 ****        -4.6851   1.3327  -1.5614 C.3            1 S1                 0.0000
     21 ****        -5.5531   1.9001  -2.6602 C.3            1 S1                 0.0000
     22 ****        -6.1771   1.0961  -1.5415 C.3            1 S1                 0.0000
     23 ****        -3.0417   3.1111  -1.0283 C.3            1 S1                 0.0000
     24 ****        -1.7503   2.2748  -0.9536 C.3            1 S1                 0.0000
     25 ****         1.2891  -0.7450   0.5166 H              1 S1                 0.0000
     26 ****         3.6001   2.2637   0.6575 H              1 S1                 0.0000
     27 ****         6.0352   1.9811   0.7453 H              1 S1                 0.0000
     28 ****         7.0077  -0.3870   0.7559 H              1 S1                 0.0000
     29 ****         4.2780  -3.3917   1.9221 H              1 S1                 0.0000
     30 ****         2.7274  -2.8935   2.6025 H              1 S1                 0.0000
     31 ****         3.1913  -5.4465   1.6150 H              1 S1                 0.0000
     32 ****         1.5954  -4.7012   1.6137 H              1 S1                 0.0000
     33 ****         3.1863  -5.3258  -0.7464 H              1 S1                 0.0000
     34 ****         1.5872  -4.5931  -0.6598 H              1 S1                 0.0000
     35 ****         2.7016  -2.6877  -1.4690 H              1 S1                 0.0000
     36 ****         4.2614  -3.2444  -0.8599 H              1 S1                 0.0000
     37 ****        -0.5591  -0.1782   0.4375 H              1 S1                 0.0000
     38 ****        -1.3731   2.5217   1.1592 H              1 S1                 0.0000
     39 ****        -2.9044   0.0239   0.3061 H              1 S1                 0.0000
     40 ****        -2.6690   0.5917   1.9382 H              1 S1                 0.0000
     41 ****        -4.9365   1.2240   1.0802 H              1 S1                 0.0000
     42 ****        -3.9881   2.6309   1.4899 H              1 S1                 0.0000
     43 ****        -4.0034   0.5112  -1.7728 H              1 S1                 0.0000
     44 ****        -5.7386   2.9726  -2.6711 H              1 S1                 0.0000
     45 ****        -5.4942   1.4286  -3.6392 H              1 S1                 0.0000
     46 ****        -6.5308   0.0960  -1.7843 H              1 S1                 0.0000
     47 ****        -6.7754   1.6355  -0.8093 H              1 S1                 0.0000
     48 ****        -3.1983   3.4800  -2.0426 H              1 S1                 0.0000
     49 ****        -2.9405   3.9927  -0.3939 H              1 S1                 0.0000
     50 ****        -0.9009   2.8962  -1.2397 H              1 S1                 0.0000
     51 ****        -1.7929   1.4652  -1.6832 H              1 S1                 0.0000
     52 ****        -4.9871   3.0122  -0.5165 H              1 S1                 0.0000
     53 ****         5.5587  -2.1827   0.6838 H              1 S1                 0.0000
     54 ****         2.2043   2.6379   0.7016 LP             1 S1                 0.0000
     55 ****         0.5395   3.1113   0.6363 LP             1 S1                 0.0000
     56 ****         2.1067  -1.9651   0.6207 LP             1 S1                 0.0000
@<TRIPOS>BOND
    1    1    2 2     
    2    2    3 am    
    3    2   15 am    
    4    3    4 1     
    5    3   25 1     
    6    4    9 ar    
    7    4    5 ar    
    8    5    6 ar    
    9    5   26 1     
   10    6    7 ar    
   11    6   27 1     
   12    7    8 ar    
   13    7   28 1     
   14    8    9 ar    
   15    8   53 1     
   16    9   10 1     
   17   10   14 1     
   18   10   11 1     
   19   11   12 1     
   20   11   29 1     
   21   11   30 1     
   22   12   13 1     
   23   12   31 1     
   24   12   32 1     
   25   13   14 1     
   26   13   33 1     
   27   13   34 1     
   28   14   35 1     
   29   14   36 1     
   30   15   16 1     
   31   15   37 1     
   32   16   24 1     
   33   16   17 1     
   34   16   38 1     
   35   17   18 1     
   36   17   39 1     
   37   17   40 1     
   38   18   19 1     
   39   18   41 1     
   40   18   42 1     
   41   19   20 1     
   42   19   23 1     
   43   19   52 1     
   44   20   22 1     
   45   20   21 1     
   46   20   43 1     
   47   21   22 1     
   48   21   44 1     
   49   21   45 1     
   50   22   46 1     
   51   22   47 1     
   52   23   24 1     
   53   23   48 1     
   54   23   49 1     
   55   24   50 1     
   56   24   51 1     
   57    1   54 1     
   58    1   55 1     
   59   10   56 1     
@<TRIPOS>SUBSTRUCTURE
      1 S1             1
@<TRIPOS>SET
LONE_PAIRS      STATIC     ATOMS    <user>   **** ""
3 54 55 56
DONOR_HYDROGENS      STATIC     ATOMS    <user>   **** ""
4 25 53 37 52
ATOM$BLUE        STATIC     ATOMS    COLORGROUP SYSTEM
3 54 55 56
ATOM$RED        STATIC     ATOMS    COLORGROUP SYSTEM
4 25 53 37 52
