AV-unprocessed.smi:1521|AV-procd|sdf|6131|dock2
  -GOLD-   22720 6273D 1   1.00000     0.00000
 Structure written by MMmdl.
 36 37  0  0  0  0  0  0  0  0  1 V2000
  148.0724  133.9312  155.6327 O   0  0  0  0  0  0  0  0  0  0  0  0
  148.4217  134.5951  154.6572 C   0  0  0  0  0  0  0  0  0  0  0  0
  149.2325  135.6592  154.7430 N   0  0  0  0  0  0  0  0  0  0  0  0
  149.8356  136.1612  155.9735 C   0  0  0  0  0  0  0  0  0  0  0  0
  150.7929  137.3326  155.6949 C   0  0  1  0  0  0  0  0  0  0  0  0
  150.0912  138.4861  154.9500 C   0  0  0  0  0  0  0  0  0  0  0  0
  151.0166  139.5467  154.7491 O   0  0  0  0  0  0  0  0  0  0  0  0
  151.5106  140.0426  155.9859 C   0  0  0  0  0  0  0  0  0  0  0  0
  152.2064  138.8995  156.7424 C   0  0  0  0  0  0  0  0  0  0  0  0
  151.2774  137.8414  156.9335 O   0  0  0  0  0  0  0  0  0  0  0  0
  148.0781  134.3575  153.3779 N   0  0  0  0  0  0  0  0  0  0  0  0
  147.2481  133.3537  152.8502 C   0  0  0  0  0  0  0  0  0  0  0  0
  146.3652  133.5290  151.8322 C   0  0  0  0  0  0  0  0  0  0  0  0
  145.5436  132.4419  151.3272 C   0  0  0  0  0  0  0  0  0  0  0  0
  144.5042  132.6717  150.2413 C   0  0  0  0  0  0  0  0  0  0  0  0
  143.2985  132.3227  150.6876 F   0  0  0  0  0  0  0  0  0  0  0  0
  144.4573  133.9534  149.8757 F   0  0  0  0  0  0  0  0  0  0  0  0
  144.7740  131.9383  149.1615 F   0  0  0  0  0  0  0  0  0  0  0  0
  145.6951  131.2465  151.9269 C   0  0  0  0  0  0  0  0  0  0  0  0
  146.6150  131.0527  152.9596 N   0  0  0  0  0  0  0  0  0  0  0  0
  147.4074  132.0249  153.4641 C   0  0  0  0  0  0  0  0  0  0  0  0
  148.1943  131.7735  154.3762 O   0  0  0  0  0  0  0  0  0  0  0  0
  146.6798  130.1229  153.3481 H   0  0  0  0  0  0  0  0  0  0  0  0
  149.4708  136.1443  153.8905 H   0  0  0  0  0  0  0  0  0  0  0  0
  149.0249  136.4976  156.6200 H   0  0  0  0  0  0  0  0  0  0  0  0
  150.3481  135.3635  156.5142 H   0  0  0  0  0  0  0  0  0  0  0  0
  151.6314  136.9721  155.0955 H   0  0  0  0  0  0  0  0  0  0  0  0
  149.7296  138.1477  153.9788 H   0  0  0  0  0  0  0  0  0  0  0  0
  149.2244  138.8445  155.5079 H   0  0  0  0  0  0  0  0  0  0  0  0
  152.2141  140.8523  155.7910 H   0  0  0  0  0  0  0  0  0  0  0  0
  150.6945  140.4602  156.5777 H   0  0  0  0  0  0  0  0  0  0  0  0
  153.0787  138.5416  156.1932 H   0  0  0  0  0  0  0  0  0  0  0  0
  152.5575  139.2458  157.7146 H   0  0  0  0  0  0  0  0  0  0  0  0
  148.5031  134.9549  152.6838 H   0  0  0  0  0  0  0  0  0  0  0  0
  146.2584  134.4848  151.3460 H   0  0  0  0  0  0  0  0  0  0  0  0
  145.1309  130.3615  151.6721 H   0  0  0  0  0  0  0  0  0  0  0  0
  1  2  2  0  0  0  0
  2  3  1  0  0  0  0
  2 11  1  0  0  0  0
  3  4  1  0  0  0  0
  3 24  1  0  0  0  0
  4  5  1  0  0  0  0
  4 25  1  0  0  0  0
  4 26  1  0  0  0  0
  5 10  1  0  0  0  0
  5  6  1  0  0  0  0
  5 27  1  0  0  0  0
  6  7  1  0  0  0  0
  6 28  1  0  0  0  0
  6 29  1  0  0  0  0
  7  8  1  0  0  0  0
  8  9  1  0  0  0  0
  8 30  1  0  0  0  0
  8 31  1  0  0  0  0
  9 10  1  0  0  0  0
  9 32  1  0  0  0  0
  9 33  1  0  0  0  0
 11 12  1  0  0  0  0
 11 34  1  0  0  0  0
 12 21  1  0  0  0  0
 12 13  2  0  0  0  0
 13 14  1  0  0  0  0
 13 35  1  0  0  0  0
 14 15  1  0  0  0  0
 14 19  2  0  0  0  0
 15 16  1  0  0  0  0
 15 17  1  0  0  0  0
 15 18  1  0  0  0  0
 19 20  1  0  0  0  0
 19 36  1  0  0  0  0
 20 23  1  0  0  0  0
 20 21  1  0  0  0  0
 21 22  2  0  0  0  0
M  END
> <s_m_source_file>
AV-unprocessed.smi

> <i_m_source_file_index>
1521

> <i_lp_mmshare_version>
43012

> <i_f3d_flags>
0

> <s_epik_input>
Tz1jMVtuSF1bY0hdYyhDKEYpKEYpRilbY0hdYzFbTkhdQyg9TylbTkhdW0NIMl1bQ0BASF0yW0NIMl1PW0NIMl1bQ0gyXU8y

> <s_epik_cmdline>
J2VwaWtfcHl0aG9uJywgJy1waCcsICc3LjAnLCAnLXRuJywgJzgnLCAnLW1hJywgJzIwMCcsICctbWV0YWxfYmluZGluZycsICctaW1hZScsICc8aW5maWxlLm1hZT4nLCAnLW9tYWUnLCAnPG91dGZpbGUubWFlPic=

> <r_lp_tautomer_probability>
1

> <r_epik_Ionization_Penalty>
0.00396636

> <r_epik_Ionization_Penalty_Charging>
0.00394789

> <r_epik_Ionization_Penalty_Neutral>
1.84676e-05

> <r_epik_State_Penalty>
-0

> <r_epik_Charging_Adjusted_Penalty>
0.00394789

> <i_epik_Tot_Q>
0

> <i_epik_Tot_abs_Q>
0

> <r_epik_Metal_State_Penalty>
0.372669

> <b_epik_Metal_Only>
0

> <s_lp_Force_Field>
OPLS_2005

> <r_lp_Energy>
19.2224

> <b_lp_Chiralities_Consistent>
1

> <s_lp_Variant>
AV-unprocessed.smi:1521-2

> <Gold.Version>
5.8.1

> <Gold.Id.Protein>
6NUR|6NUR_protein|mol2

> <Gold.PLP.Fitness>
41.3751

> <Gold.PLP.PLP>
-33.6171

> <Gold.PLP.part.hbond>
-2.9146

> <Gold.PLP.part.metal>
0.0000

> <Gold.PLP.part.buried>
-2.7271

> <Gold.PLP.part.nonpolar>
-29.4684

> <Gold.PLP.part.repulsive>
0.1909

> <Gold.PLP.ligand.clash>
0.0052

> <Gold.PLP.ligand.torsion>
0.3655

> <Gold.PLP.Chemscore.Hbond>
2.8160

> <Gold.PLP.Chemscore.CHOScore>
0.0000

> <Gold.PLP.Chemscore.Metal>
0.0000

> <Gold.Chemscore.Hbonds>
donor molecule, donor type, donor heavy atom, donor atom, acceptor molecule, acceptor atom, score
      L1  H     3    24       P1  7948  0.76
      L1  H    11    34       P1  7948  1.00
      P1  H  7989  7998       L1     7  1.00

> <Gold.PLP.Chemscore.Internal.Correction>
0.0463

> <Gold.Rescore>
     Score         DG    S(hbond)    S(metal)    S(lipo)     H(rot)  DE(clash)    DE(int)     intcor
     12.29     -15.78       2.17        0.00      56.28       1.37       0.49       3.00       ----

> <Gold.Chemscore.Fitness>
12.2913

> <Gold.Chemscore.DG>
-15.7832

> <Gold.Chemscore.ZeroCoef>
-5.4800

> <Gold.Chemscore.Hbond>
2.1662

> <Gold.Chemscore.Metal>
0.0000

> <Gold.Chemscore.Lipo>
56.2766

> <Gold.Chemscore.Internal_Hbond>
0.0000

> <Gold.Chemscore.DEClash>
0.4947

> <Gold.Chemscore.DEInternal>
2.9972

> <Gold.Chemscore.Rot>
1.3735

> <Gold.Chemscore.Internal.Correction>
   9.000000E+99

> <Gold.Chemscore.Hbonds>
donor molecule, donor type, donor heavy atom, donor atom, acceptor molecule, acceptor atom, score
      L1  H     3    24       P1  7948  0.51
      L1  H    11    34       P1  7948  0.37
      P1  H  7989  7998       L1     7  0.40

> <Gold.Chemscore.Hbond.Weighted>
-7.2350

> <Gold.Chemscore.Metal.Weighted>
-0.0000

> <Gold.Chemscore.Lipo.Weighted>
-6.5844

> <Gold.Chemscore.Internal_Hbond.Weighted>
0.0000

> <Gold.Chemscore.DEClash.Weighted>
0.4947

> <Gold.Chemscore.DEInternal.Weighted>
2.9972

> <Gold.Chemscore.Rot.Weighted>
3.5162

> <Gold.Chemscore.Internal.Correction.Weighted>
   9.000000E+99

> <Gold.Protein.RotatedTorsions>
[ 6907 6896 6895 6894 ] final   91.48 input  -60.11 | X-H torsion
[ 7974 7965 7964 7962 ] final  139.47 input  175.53 | X-H torsion
[ 8008 7997 7996 7995 ] final  -82.77 input   59.86 | X-H torsion
[ 10167 10162 10161 10158 ] final   34.60 input  -65.29 | X-H torsion
[ 10718 10713 10712 10709 ] final  -14.15 input   66.30 | X-H torsion
[ 10763 10752 10751 10750 ] final   97.78 input  -60.55 | X-H torsion
[ 11005 11000 10999 10996 ] final   67.72 input  -57.11 | X-H torsion

> <Gold.Protein.ActiveResidues>
 VAL166  LYS551  ARG553  GLY616  TRP617  ASP618  TYR619  PRO620  LYS621  CYS622 
 ASP623  PHE694  ASN695  SER759  ASP760  ASP761  ALA762  ILE779  LEU786  VAL792 
 PHE793  MET794  SER795  GLU796  ALA797  LYS798  CYS799  TRP800  GLU811  SER814 

> <Gold.Protein.RotatedAtoms>
  152.5450  134.1650  159.8572 H   0  0  0  0  0  0  0  0  0  0  0  0  # atno 6907 bound_to 6896
  151.1665  133.4804  159.2601 H   0  0  0  0  0  0  0  0  0  0  0  0  # atno 6908 bound_to 6896
  151.1319  135.0146  159.8641 H   0  0  0  0  0  0  0  0  0  0  0  0  # atno 6909 bound_to 6896
  144.9276  139.5088  143.5633 H   0  0  0  0  0  0  0  0  0  0  0  0  # atno 7974 bound_to 7965
  154.6121  140.0628  156.9507 H   0  0  0  0  0  0  0  0  0  0  0  0  # atno 8008 bound_to 7997
  155.1956  140.3311  155.4333 H   0  0  0  0  0  0  0  0  0  0  0  0  # atno 8009 bound_to 7997
  156.2382  140.1873  156.7043 H   0  0  0  0  0  0  0  0  0  0  0  0  # atno 8010 bound_to 7997
  140.4300  144.1338  150.6158 H   0  0  0  0  0  0  0  0  0  0  0  0  # atno 10167 bound_to 10162
  156.6201  130.4873  149.6168 H   0  0  0  0  0  0  0  0  0  0  0  0  # atno 10718 bound_to 10713
  153.2810  135.4171  155.1078 H   0  0  0  0  0  0  0  0  0  0  0  0  # atno 10763 bound_to 10752
  154.8489  135.3495  154.6112 H   0  0  0  0  0  0  0  0  0  0  0  0  # atno 10764 bound_to 10752
  153.6533  135.7051  153.5259 H   0  0  0  0  0  0  0  0  0  0  0  0  # atno 10765 bound_to 10752
  139.9754  134.6831  156.0365 H   0  0  0  0  0  0  0  0  0  0  0  0  # atno 11005 bound_to 11000
  146.3233  139.8202  142.8928 LP  0  0  0  0  0  0  0  0  0  0  0  0  # atno 17320 bound_to 7965
  145.3195  141.0240  143.3509 LP  0  0  0  0  0  0  0  0  0  0  0  0  # atno 17321 bound_to 7965
  140.4438  143.2515  151.9438 LP  0  0  0  0  0  0  0  0  0  0  0  0  # atno 17342 bound_to 10162
  139.4784  144.5629  151.8211 LP  0  0  0  0  0  0  0  0  0  0  0  0  # atno 17343 bound_to 10162
  156.2319  130.6799  151.1472 LP  0  0  0  0  0  0  0  0  0  0  0  0  # atno 17370 bound_to 10713
  157.7230  131.0669  150.6054 LP  0  0  0  0  0  0  0  0  0  0  0  0  # atno 17371 bound_to 10713
  141.1431  133.6561  156.3788 LP  0  0  0  0  0  0  0  0  0  0  0  0  # atno 17394 bound_to 11000
  140.5206  134.6307  157.5317 LP  0  0  0  0  0  0  0  0  0  0  0  0  # atno 17395 bound_to 11000

$$$$
