AV-unprocessed.smi:2101|AV-procd|sdf|8580|dock9
  -GOLD-   2272011313D 1   1.00000     0.00000
 Structure written by MMmdl.
 42 43  0  0  0  0  0  0  0  0  2 V2000
  150.9205  140.7609  157.8961 C   0  0  0  0  0  0  0  0  0  0  0  0
  151.6682  139.7457  156.5567 S   0  0  0  0  0  0  0  0  0  0  0  0
  151.5665  140.4982  155.2969 O   0  0  0  0  0  0  0  0  0  0  0  0
  152.9810  139.2682  157.0173 O   0  0  0  0  0  0  0  0  0  0  0  0
  150.6097  138.3705  156.4431 N   0  0  0  0  0  0  0  0  0  0  0  0
  149.9637  138.0584  155.1473 C   0  0  0  0  0  0  0  0  0  0  0  0
  150.6234  136.8468  154.4602 C   0  0  0  0  0  0  0  0  0  0  0  0
  150.6252  135.7158  155.3971 N   0  0  0  0  0  0  0  0  0  0  0  0
  149.7883  134.6492  155.3761 C   0  0  0  0  0  0  0  0  0  0  0  0
  149.7905  133.7727  156.2419 O   0  0  0  0  0  0  0  0  0  0  0  0
  148.9754  134.5926  154.3070 N   0  0  0  0  0  0  0  0  0  0  0  0
  148.0001  133.5384  154.0534 C   0  0  0  0  0  0  0  0  0  0  0  0
  148.0815  133.0329  152.6031 C   0  0  0  0  0  0  0  0  0  0  0  0
  146.8521  133.4036  151.7974 C   0  0  0  0  0  0  0  0  0  0  0  0
  145.9276  132.4373  151.3445 C   0  0  0  0  0  0  0  0  0  0  0  0
  144.8011  132.8555  150.6051 C   0  0  0  0  0  0  0  0  0  0  0  0
  144.6238  134.2284  150.3342 C   0  0  0  0  0  0  0  0  0  0  0  0
  145.5778  135.1501  150.8118 C   0  0  0  0  0  0  0  0  0  0  0  0
  146.6428  134.7106  151.5179 N   0  3  0  0  0  0  0  0  0  0  0  0
  151.4686  136.0265  156.5529 C   0  0  0  0  0  0  0  0  0  0  0  0
  150.8434  137.2041  157.3255 C   0  0  0  0  0  0  0  0  0  0  0  0
  151.5232  141.6568  158.0435 H   0  0  0  0  0  0  0  0  0  0  0  0
  150.8977  140.1908  158.8235 H   0  0  0  0  0  0  0  0  0  0  0  0
  149.9101  141.0552  157.6161 H   0  0  0  0  0  0  0  0  0  0  0  0
  148.9102  137.8446  155.3323 H   0  0  0  0  0  0  0  0  0  0  0  0
  149.9898  138.9261  154.4889 H   0  0  0  0  0  0  0  0  0  0  0  0
  150.1125  136.6373  153.5206 H   0  0  0  0  0  0  0  0  0  0  0  0
  151.6502  137.0812  154.1790 H   0  0  0  0  0  0  0  0  0  0  0  0
  149.0382  135.3334  153.6236 H   0  0  0  0  0  0  0  0  0  0  0  0
  148.1954  132.7182  154.7450 H   0  0  0  0  0  0  0  0  0  0  0  0
  146.9960  133.9015  154.2795 H   0  0  0  0  0  0  0  0  0  0  0  0
  148.9598  133.4462  152.1048 H   0  0  0  0  0  0  0  0  0  0  0  0
  148.2050  131.9492  152.5923 H   0  0  0  0  0  0  0  0  0  0  0  0
  146.0762  131.3894  151.5616 H   0  0  0  0  0  0  0  0  0  0  0  0
  144.0812  132.1322  150.2504 H   0  0  0  0  0  0  0  0  0  0  0  0
  143.7684  134.5691  149.7690 H   0  0  0  0  0  0  0  0  0  0  0  0
  145.5221  136.2172  150.6522 H   0  0  0  0  0  0  0  0  0  0  0  0
  151.5956  135.1709  157.2176 H   0  0  0  0  0  0  0  0  0  0  0  0
  152.4726  136.2800  156.2123 H   0  0  0  0  0  0  0  0  0  0  0  0
  151.4772  137.4831  158.1667 H   0  0  0  0  0  0  0  0  0  0  0  0
  149.8869  136.8969  157.7499 H   0  0  0  0  0  0  0  0  0  0  0  0
  147.3205  135.3952  151.8548 H   0  0  0  0  0  0  0  0  0  0  0  0
  1  2  1  0  0  0  0
  1 22  1  0  0  0  0
  1 23  1  0  0  0  0
  1 24  1  0  0  0  0
  2  3  2  0  0  0  0
  2  4  2  0  0  0  0
  2  5  1  0  0  0  0
  5 21  1  0  0  0  0
  5  6  1  0  0  0  0
  6  7  1  0  0  0  0
  6 25  1  0  0  0  0
  6 26  1  0  0  0  0
  7  8  1  0  0  0  0
  7 27  1  0  0  0  0
  7 28  1  0  0  0  0
  8  9  1  0  0  0  0
  8 20  1  0  0  0  0
  9 10  2  0  0  0  0
  9 11  1  0  0  0  0
 11 12  1  0  0  0  0
 11 29  1  0  0  0  0
 12 13  1  0  0  0  0
 12 30  1  0  0  0  0
 12 31  1  0  0  0  0
 13 14  1  0  0  0  0
 13 32  1  0  0  0  0
 13 33  1  0  0  0  0
 14 19  1  0  0  0  0
 14 15  2  0  0  0  0
 15 16  1  0  0  0  0
 15 34  1  0  0  0  0
 16 17  2  0  0  0  0
 16 35  1  0  0  0  0
 17 18  1  0  0  0  0
 17 36  1  0  0  0  0
 18 19  2  0  0  0  0
 18 37  1  0  0  0  0
 19 42  1  0  0  0  0
 20 21  1  0  0  0  0
 20 38  1  0  0  0  0
 20 39  1  0  0  0  0
 21 40  1  0  0  0  0
 21 41  1  0  0  0  0
M  CHG  1  19   1
M  END
> <s_m_source_file>
AV-unprocessed.smi

> <i_m_source_file_index>
2101

> <i_lp_mmshare_version>
43012

> <i_f3d_flags>
0

> <s_epik_input>
W0NIM11TKD1PKSg9TylOMVtDSDJdW0NIMl1OKFtDSDJdW0NIMl0xKUMoPU8pW05IXVtDSDJdW0NIMl1jMltjSF1bY0hdW2NIXVtjSF1uMg==

> <s_epik_cmdline>
J2VwaWtfcHl0aG9uJywgJy1waCcsICc3LjAnLCAnLXRuJywgJzgnLCAnLW1hJywgJzIwMCcsICctbWV0YWxfYmluZGluZycsICctaW1hZScsICc8aW5maWxlLm1hZT4nLCAnLW9tYWUnLCAnPG91dGZpbGUubWFlPic=

> <r_epik_Ionization_Penalty>
1.56137

> <r_epik_Ionization_Penalty_Charging>
1.56133

> <r_epik_Ionization_Penalty_Neutral>
3.86464e-05

> <r_epik_State_Penalty>
1.65637

> <r_epik_Charging_Adjusted_Penalty>
3.2177

> <i_epik_Tot_Q>
1

> <i_epik_Tot_abs_Q>
1

> <r_epik_Metal_State_Penalty>
1.69784

> <b_epik_Metal_Only>
0

> <s_lp_Force_Field>
OPLS_2005

> <r_lp_Energy>
29.4976

> <b_lp_Chiralities_Consistent>
1

> <s_lp_Variant>
AV-unprocessed.smi:2101-2

> <Gold.Version>
5.8.1

> <Gold.Id.Protein>
6NUR|6NUR_protein|mol2

> <Gold.PLP.Fitness>
45.8429

> <Gold.PLP.PLP>
-32.3524

> <Gold.PLP.part.hbond>
-4.0000

> <Gold.PLP.part.metal>
0.0000

> <Gold.PLP.part.buried>
-3.1702

> <Gold.PLP.part.nonpolar>
-25.5933

> <Gold.PLP.part.repulsive>
0.0851

> <Gold.PLP.ligand.clash>
0.0000

> <Gold.PLP.ligand.torsion>
1.5639

> <Gold.PLP.Chemscore.Hbond>
4.8320

> <Gold.PLP.Chemscore.CHOScore>
0.0000

> <Gold.PLP.Chemscore.Metal>
0.0000

> <Gold.Chemscore.Hbonds>
donor molecule, donor type, donor heavy atom, donor atom, acceptor molecule, acceptor atom, score
      L1  H    11    29       P1  7948  1.00
      L1  H    19    42       P1  7948  2.00
      P1  H  7989  7998       L1     3  0.82
      P1  H  7997  8010       L1     4  1.00

> <Gold.PLP.Chemscore.Internal.Correction>
2.1224

> <Gold.Rescore>
     Score         DG    S(hbond)    S(metal)    S(lipo)     H(rot)  DE(clash)    DE(int)     intcor
     19.12     -21.41       3.50        0.00      68.29       1.47       0.74       1.54       ----

> <Gold.Chemscore.Fitness>
19.1247

> <Gold.Chemscore.DG>
-21.4098

> <Gold.Chemscore.ZeroCoef>
-5.4800

> <Gold.Chemscore.Hbond>
3.5049

> <Gold.Chemscore.Metal>
0.0000

> <Gold.Chemscore.Lipo>
68.2909

> <Gold.Chemscore.Internal_Hbond>
0.0000

> <Gold.Chemscore.DEClash>
0.7434

> <Gold.Chemscore.DEInternal>
1.5416

> <Gold.Chemscore.Rot>
1.4714

> <Gold.Chemscore.Internal.Correction>
   9.000000E+99

> <Gold.Chemscore.Hbonds>
donor molecule, donor type, donor heavy atom, donor atom, acceptor molecule, acceptor atom, score
      L1  H    11    29       P1  7948  0.59
      L1  H    19    42       P1  7948  0.96
      P1  H  7989  7998       L1     3  0.81
      P1  H  7997  8010       L1     4  0.90

> <Gold.Chemscore.Hbond.Weighted>
-11.7064

> <Gold.Chemscore.Metal.Weighted>
-0.0000

> <Gold.Chemscore.Lipo.Weighted>
-7.9900

> <Gold.Chemscore.Internal_Hbond.Weighted>
0.0000

> <Gold.Chemscore.DEClash.Weighted>
0.7434

> <Gold.Chemscore.DEInternal.Weighted>
1.5416

> <Gold.Chemscore.Rot.Weighted>
3.7667

> <Gold.Chemscore.Internal.Correction.Weighted>
   9.000000E+99

> <Gold.Protein.RotatedTorsions>
[ 6907 6896 6895 6894 ] final -133.23 input  -60.11 | X-H torsion
[ 7974 7965 7964 7962 ] final  -13.41 input  175.53 | X-H torsion
[ 8008 7997 7996 7995 ] final   76.53 input   59.86 | X-H torsion
[ 10167 10162 10161 10158 ] final -152.87 input  -65.29 | X-H torsion
[ 10718 10713 10712 10709 ] final  162.91 input   66.30 | X-H torsion
[ 10763 10752 10751 10750 ] final  -12.56 input  -60.55 | X-H torsion
[ 11005 11000 10999 10996 ] final  -36.57 input  -57.11 | X-H torsion

> <Gold.Protein.ActiveResidues>
 VAL166  LYS551  ARG553  GLY616  TRP617  ASP618  TYR619  PRO620  LYS621  CYS622 
 ASP623  PHE694  ASN695  SER759  ASP760  ASP761  ALA762  ILE779  LEU786  VAL792 
 PHE793  MET794  SER795  GLU796  ALA797  LYS798  CYS799  TRP800  GLU811  SER814 

> <Gold.Protein.RotatedAtoms>
  150.9715  133.6338  159.2736 H   0  0  0  0  0  0  0  0  0  0  0  0  # atno 6907 bound_to 6896
  151.3625  135.0906  159.9449 H   0  0  0  0  0  0  0  0  0  0  0  0  # atno 6908 bound_to 6896
  152.5184  133.9286  159.7624 H   0  0  0  0  0  0  0  0  0  0  0  0  # atno 6909 bound_to 6896
  146.2115  140.3199  142.8389 H   0  0  0  0  0  0  0  0  0  0  0  0  # atno 7974 bound_to 7965
  155.8287  140.3467  155.5558 H   0  0  0  0  0  0  0  0  0  0  0  0  # atno 8008 bound_to 7997
  155.8266  140.0921  157.1838 H   0  0  0  0  0  0  0  0  0  0  0  0  # atno 8009 bound_to 7997
  154.4004  140.1420  156.3550 H   0  0  0  0  0  0  0  0  0  0  0  0  # atno 8010 bound_to 7997
  139.7145  143.9055  152.2481 H   0  0  0  0  0  0  0  0  0  0  0  0  # atno 10167 bound_to 10162
  157.1160  131.0480  151.2436 H   0  0  0  0  0  0  0  0  0  0  0  0  # atno 10718 bound_to 10713
  153.5002  135.7017  153.5836 H   0  0  0  0  0  0  0  0  0  0  0  0  # atno 10763 bound_to 10752
  153.3970  135.3881  155.1962 H   0  0  0  0  0  0  0  0  0  0  0  0  # atno 10764 bound_to 10752
  154.8711  135.3872  154.4472 H   0  0  0  0  0  0  0  0  0  0  0  0  # atno 10765 bound_to 10752
  140.9885  133.7018  156.1807 H   0  0  0  0  0  0  0  0  0  0  0  0  # atno 11005 bound_to 11000
  144.8927  140.7544  143.5916 LP  0  0  0  0  0  0  0  0  0  0  0  0  # atno 17320 bound_to 7965
  145.3122  139.1815  143.4632 LP  0  0  0  0  0  0  0  0  0  0  0  0  # atno 17321 bound_to 7965
  139.8934  144.6953  150.8745 LP  0  0  0  0  0  0  0  0  0  0  0  0  # atno 17342 bound_to 10162
  140.7740  143.3569  151.1904 LP  0  0  0  0  0  0  0  0  0  0  0  0  # atno 17343 bound_to 10162
  157.4518  130.7603  149.7158 LP  0  0  0  0  0  0  0  0  0  0  0  0  # atno 17370 bound_to 10713
  155.9839  130.3996  150.3337 LP  0  0  0  0  0  0  0  0  0  0  0  0  # atno 17371 bound_to 10713
  140.7078  134.4495  157.5583 LP  0  0  0  0  0  0  0  0  0  0  0  0  # atno 17394 bound_to 11000
  139.8981  134.8621  156.2015 LP  0  0  0  0  0  0  0  0  0  0  0  0  # atno 17395 bound_to 11000

$$$$
