AV-unprocessed.smi:761|AV-procd|sdf|3630|dock5
  -GOLD-   22720 1 23D 1   1.00000     0.00000
 Structure written by MMmdl.
 34 35  0  0  0  0  0  0  0  0  2 V2000
  144.3806  136.2865  151.5436 O   0  0  0  0  0  0  0  0  0  0  0  0
  145.5858  136.0367  151.5658 C   0  0  0  0  0  0  0  0  0  0  0  0
  146.5218  136.9629  151.8186 N   0  0  0  0  0  0  0  0  0  0  0  0
  146.2428  138.3632  152.1148 C   0  0  0  0  0  0  0  0  0  0  0  0
  146.3649  138.6563  153.6216 C   0  0  0  0  0  0  0  0  0  0  0  0
  146.2192  140.0995  153.9200 N   0  3  0  0  0  0  0  0  0  0  0  0
  147.1705  140.9869  153.1902 C   0  0  0  0  0  0  0  0  0  0  0  0
  147.5389  142.0184  154.2187 C   0  0  0  0  0  0  0  0  0  0  0  0
  147.0452  141.7116  155.4129 C   0  0  0  0  0  0  0  0  0  0  0  0
  146.2696  140.4255  155.3731 C   0  0  0  0  0  0  0  0  0  0  0  0
  146.1396  134.8361  151.3235 N   0  0  0  0  0  0  0  0  0  0  0  0
  145.4944  133.6009  151.0429 C   0  0  0  0  0  0  0  0  0  0  0  0
  144.1511  133.6444  150.6156 C   0  0  0  0  0  0  0  0  0  0  0  0
  143.4943  132.4345  150.3143 C   0  0  0  0  0  0  0  0  0  0  0  0
  144.0880  131.2260  150.4043 N   0  0  0  0  0  0  0  0  0  0  0  0
  145.3782  131.1870  150.7989 C   0  0  0  0  0  0  0  0  0  0  0  0
  146.1261  132.3364  151.1245 C   0  0  0  0  0  0  0  0  0  0  0  0
  147.4908  136.6786  151.8128 H   0  0  0  0  0  0  0  0  0  0  0  0
  146.9142  138.9980  151.5340 H   0  0  0  0  0  0  0  0  0  0  0  0
  145.2322  138.5876  151.7726 H   0  0  0  0  0  0  0  0  0  0  0  0
  145.5836  138.1094  154.1516 H   0  0  0  0  0  0  0  0  0  0  0  0
  147.3183  138.3009  154.0156 H   0  0  0  0  0  0  0  0  0  0  0  0
  148.0687  140.4573  152.8687 H   0  0  0  0  0  0  0  0  0  0  0  0
  146.6928  141.4412  152.3218 H   0  0  0  0  0  0  0  0  0  0  0  0
  148.1486  142.8805  153.9903 H   0  0  0  0  0  0  0  0  0  0  0  0
  147.1855  142.2821  156.3194 H   0  0  0  0  0  0  0  0  0  0  0  0
  145.2657  140.5499  155.7799 H   0  0  0  0  0  0  0  0  0  0  0  0
  146.7982  139.6645  155.9493 H   0  0  0  0  0  0  0  0  0  0  0  0
  147.1483  134.8106  151.2930 H   0  0  0  0  0  0  0  0  0  0  0  0
  143.6270  134.5844  150.5229 H   0  0  0  0  0  0  0  0  0  0  0  0
  142.4641  132.4391  149.9900 H   0  0  0  0  0  0  0  0  0  0  0  0
  145.8327  130.2088  150.8511 H   0  0  0  0  0  0  0  0  0  0  0  0
  147.1594  132.2245  151.4135 H   0  0  0  0  0  0  0  0  0  0  0  0
  145.2956  140.3724  153.6157 H   0  0  0  0  0  0  0  0  0  0  0  0
  1  2  2  0  0  0  0
  2  3  1  0  0  0  0
  2 11  1  0  0  0  0
  3  4  1  0  0  0  0
  3 18  1  0  0  0  0
  4  5  1  0  0  0  0
  4 19  1  0  0  0  0
  4 20  1  0  0  0  0
  5  6  1  0  0  0  0
  5 21  1  0  0  0  0
  5 22  1  0  0  0  0
  6 10  1  0  0  0  0
  6  7  1  0  0  0  0
  6 34  1  0  0  0  0
  7  8  1  0  0  0  0
  7 23  1  0  0  0  0
  7 24  1  0  0  0  0
  8  9  2  0  0  0  0
  8 25  1  0  0  0  0
  9 10  1  0  0  0  0
  9 26  1  0  0  0  0
 10 27  1  0  0  0  0
 10 28  1  0  0  0  0
 11 12  1  0  0  0  0
 11 29  1  0  0  0  0
 12 17  1  0  0  0  0
 12 13  2  0  0  0  0
 13 14  1  0  0  0  0
 13 30  1  0  0  0  0
 14 15  2  0  0  0  0
 14 31  1  0  0  0  0
 15 16  1  0  0  0  0
 16 17  2  0  0  0  0
 16 32  1  0  0  0  0
 17 33  1  0  0  0  0
M  CHG  1   6   1
M  END
> <s_m_source_file>
AV-unprocessed.smi

> <i_m_source_file_index>
761

> <i_lp_mmshare_version>
43012

> <i_f3d_flags>
0

> <s_epik_input>
W2NIXTFbY0hdbltjSF1bY0hdYzFbTkhdQyg9TylbTkhdW0NIMl1bQ0gyXU4yW0NIMl1bQ0hdPVtDSF1bQ0gyXTI=

> <s_epik_cmdline>
J2VwaWtfcHl0aG9uJywgJy1waCcsICc3LjAnLCAnLXRuJywgJzgnLCAnLW1hJywgJzIwMCcsICctbWV0YWxfYmluZGluZycsICctaW1hZScsICc8aW5maWxlLm1hZT4nLCAnLW9tYWUnLCAnPG91dGZpbGUubWFlPic=

> <r_epik_Ionization_Penalty>
0.100973

> <r_epik_Ionization_Penalty_Charging>
0.00265978

> <r_epik_Ionization_Penalty_Neutral>
0.098313

> <r_epik_State_Penalty>
0.0959991

> <r_epik_Charging_Adjusted_Penalty>
0.0986589

> <i_epik_Tot_Q>
1

> <i_epik_Tot_abs_Q>
1

> <r_epik_Metal_State_Penalty>
0.0816347

> <b_epik_Metal_Only>
0

> <s_lp_Force_Field>
OPLS_2005

> <r_lp_Energy>
25.6578

> <b_lp_Chiralities_Consistent>
1

> <s_lp_Variant>
AV-unprocessed.smi:761-1

> <Gold.Version>
5.8.1

> <Gold.Id.Protein>
6NUR|6NUR_protein|mol2

> <Gold.PLP.Fitness>
45.8644

> <Gold.PLP.PLP>
-30.5720

> <Gold.PLP.part.hbond>
-3.5954

> <Gold.PLP.part.metal>
0.0000

> <Gold.PLP.part.buried>
-5.6769

> <Gold.PLP.part.nonpolar>
-24.3005

> <Gold.PLP.part.repulsive>
1.5917

> <Gold.PLP.ligand.clash>
0.0000

> <Gold.PLP.ligand.torsion>
0.2017

> <Gold.PLP.Chemscore.Hbond>
3.5980

> <Gold.PLP.Chemscore.CHOScore>
1.6265

> <Gold.PLP.Chemscore.Metal>
0.0000

> <Gold.Chemscore.Hbonds>
donor molecule, donor type, donor heavy atom, donor atom, acceptor molecule, acceptor atom, score
      L1  H     3    18       P1  7948  0.94
      L1  H     6    34       P1 10175  2.00
      L1  H    11    29       P1  7948  0.24
      P1  H 10785 10796       L1    15  0.39
      L1  C    14    31       P1 10186  0.97
      L1  C    14    31       P1 10952  0.61

> <Gold.PLP.Chemscore.Internal.Correction>
0.0221

> <Gold.Rescore>
     Score         DG    S(hbond)    S(metal)    S(lipo)     H(rot)  DE(clash)    DE(int)     intcor
     16.47     -18.67       2.39        0.00      77.49       1.51       0.67       1.54       ----

> <Gold.Chemscore.Fitness>
16.4663

> <Gold.Chemscore.DG>
-18.6726

> <Gold.Chemscore.ZeroCoef>
-5.4800

> <Gold.Chemscore.Hbond>
2.3941

> <Gold.Chemscore.Metal>
0.0000

> <Gold.Chemscore.Lipo>
77.4892

> <Gold.Chemscore.Internal_Hbond>
0.0000

> <Gold.Chemscore.DEClash>
0.6685

> <Gold.Chemscore.DEInternal>
1.5378

> <Gold.Chemscore.Rot>
1.5117

> <Gold.Chemscore.Internal.Correction>
   9.000000E+99

> <Gold.Chemscore.Hbonds>
donor molecule, donor type, donor heavy atom, donor atom, acceptor molecule, acceptor atom, score
      L1  H     3    18       P1  7948  0.90
      L1  H     6    34       P1 10175  0.97
      L1  H    11    29       P1  7948  0.13
      P1  H 10785 10796       L1    15  0.17

> <Gold.Chemscore.Hbond.Weighted>
-7.9964

> <Gold.Chemscore.Metal.Weighted>
-0.0000

> <Gold.Chemscore.Lipo.Weighted>
-9.0662

> <Gold.Chemscore.Internal_Hbond.Weighted>
0.0000

> <Gold.Chemscore.DEClash.Weighted>
0.6685

> <Gold.Chemscore.DEInternal.Weighted>
1.5378

> <Gold.Chemscore.Rot.Weighted>
3.8700

> <Gold.Chemscore.Internal.Correction.Weighted>
   9.000000E+99

> <Gold.Protein.RotatedTorsions>
[ 6907 6896 6895 6894 ] final   78.24 input  -60.11 | X-H torsion
[ 7974 7965 7964 7962 ] final   33.92 input  175.53 | X-H torsion
[ 8008 7997 7996 7995 ] final -134.47 input   59.86 | X-H torsion
[ 10167 10162 10161 10158 ] final   64.54 input  -65.29 | X-H torsion
[ 10718 10713 10712 10709 ] final -157.61 input   66.30 | X-H torsion
[ 10763 10752 10751 10750 ] final  -72.03 input  -60.55 | X-H torsion
[ 11005 11000 10999 10996 ] final  -44.88 input  -57.11 | X-H torsion

> <Gold.Protein.ActiveResidues>
 VAL166  LYS551  ARG553  GLY616  TRP617  ASP618  TYR619  PRO620  LYS621  CYS622 
 ASP623  PHE694  ASN695  SER759  ASP760  ASP761  ALA762  ILE779  LEU786  VAL792 
 PHE793  MET794  SER795  GLU796  ALA797  LYS798  CYS799  TRP800  GLU811  SER814 

> <Gold.Protein.RotatedAtoms>
  152.5151  134.3694  159.9312 H   0  0  0  0  0  0  0  0  0  0  0  0  # atno 6907 bound_to 6896
  151.3648  133.3870  159.2701 H   0  0  0  0  0  0  0  0  0  0  0  0  # atno 6908 bound_to 6896
  150.9623  134.9029  159.7796 H   0  0  0  0  0  0  0  0  0  0  0  0  # atno 6909 bound_to 6896
  146.1388  139.6334  142.9177 H   0  0  0  0  0  0  0  0  0  0  0  0  # atno 7974 bound_to 7965
  155.3625  140.0483  157.3046 H   0  0  0  0  0  0  0  0  0  0  0  0  # atno 8008 bound_to 7997
  154.5170  140.2212  155.9010 H   0  0  0  0  0  0  0  0  0  0  0  0  # atno 8009 bound_to 7997
  156.1648  140.3108  155.8875 H   0  0  0  0  0  0  0  0  0  0  0  0  # atno 8010 bound_to 7997
  140.1210  144.4731  150.6920 H   0  0  0  0  0  0  0  0  0  0  0  0  # atno 10167 bound_to 10162
  156.5426  130.8570  151.2754 H   0  0  0  0  0  0  0  0  0  0  0  0  # atno 10718 bound_to 10713
  154.4400  135.5943  153.6123 H   0  0  0  0  0  0  0  0  0  0  0  0  # atno 10763 bound_to 10752
  152.9805  135.5996  154.3733 H   0  0  0  0  0  0  0  0  0  0  0  0  # atno 10764 bound_to 10752
  154.3582  135.2841  155.2313 H   0  0  0  0  0  0  0  0  0  0  0  0  # atno 10765 bound_to 10752
  141.0479  133.6754  156.2934 H   0  0  0  0  0  0  0  0  0  0  0  0  # atno 11005 bound_to 11000
  145.5095  141.0436  143.2496 LP  0  0  0  0  0  0  0  0  0  0  0  0  # atno 17320 bound_to 7965
  144.7769  139.6611  143.7171 LP  0  0  0  0  0  0  0  0  0  0  0  0  # atno 17321 bound_to 7965
  140.6872  143.2356  151.5229 LP  0  0  0  0  0  0  0  0  0  0  0  0  # atno 17342 bound_to 10162
  139.5568  144.2255  152.1626 LP  0  0  0  0  0  0  0  0  0  0  0  0  # atno 17343 bound_to 10162
  157.7402  130.9846  150.2365 LP  0  0  0  0  0  0  0  0  0  0  0  0  # atno 17370 bound_to 10713
  156.2957  130.3751  149.7798 LP  0  0  0  0  0  0  0  0  0  0  0  0  # atno 17371 bound_to 10713
  140.6111  134.5457  157.5533 LP  0  0  0  0  0  0  0  0  0  0  0  0  # atno 17394 bound_to 11000
  139.9326  134.7934  156.0888 LP  0  0  0  0  0  0  0  0  0  0  0  0  # atno 17395 bound_to 11000

$$$$
