AV-unprocessed.smi:801|AV-procd|sdf|3789|dock7
  -GOLD-   22720 1223D 1   1.00000     0.00000
 Structure written by MMmdl.
 44 45  0  0  0  0  0  0  0  0  1 V2000
  152.3471  139.4509  155.3311 C   0  0  0  0  0  0  0  0  0  0  0  0
  152.0808  138.3743  156.2167 O   0  0  0  0  0  0  0  0  0  0  0  0
  151.7285  137.1631  155.5645 C   0  0  0  0  0  0  0  0  0  0  0  0
  151.0753  136.1640  156.5369 C   0  0  0  0  0  0  0  0  0  0  0  0
  150.6310  134.9561  155.8705 N   0  0  0  0  0  0  0  0  0  0  0  0
  149.6882  134.9480  154.8384 C   0  0  0  0  0  0  0  0  0  0  0  0
  149.1145  136.1737  154.4660 N   0  0  0  0  0  0  0  0  0  0  0  0
  148.4030  136.9654  155.2874 C   0  0  0  0  0  0  0  0  0  0  0  0
  147.7748  138.2005  154.6516 C   0  0  0  0  0  0  0  0  0  0  0  0
  148.2389  136.7395  156.4861 O   0  0  0  0  0  0  0  0  0  0  0  0
  149.2826  133.7934  154.2222 C   0  0  0  0  0  0  0  0  0  0  0  0
  148.3067  133.8098  153.2238 N   0  0  0  0  0  0  0  0  0  0  0  0
  147.7200  132.7360  152.4357 C   0  0  0  0  0  0  0  0  0  0  0  0
  146.4692  133.1561  151.6847 C   0  0  0  0  0  0  0  0  0  0  0  0
  145.6105  132.1845  151.1249 C   0  0  0  0  0  0  0  0  0  0  0  0
  144.4540  132.5788  150.4246 C   0  0  0  0  0  0  0  0  0  0  0  0
  144.1518  133.9461  150.2764 C   0  0  0  0  0  0  0  0  0  0  0  0
  145.0077  134.9190  150.8277 C   0  0  0  0  0  0  0  0  0  0  0  0
  146.1643  134.5251  151.5287 C   0  0  0  0  0  0  0  0  0  0  0  0
  149.8605  132.5044  154.6427 C   0  0  0  0  0  0  0  0  0  0  0  0
  149.6118  131.3969  154.1690 O   0  0  0  0  0  0  0  0  0  0  0  0
  150.7726  132.5796  155.6928 N   0  0  0  0  0  0  0  0  0  0  0  0
  151.1756  133.7403  156.3400 C   0  0  0  0  0  0  0  0  0  0  0  0
  151.9719  133.6656  157.2762 O   0  0  0  0  0  0  0  0  0  0  0  0
  151.1723  131.7107  156.0165 H   0  0  0  0  0  0  0  0  0  0  0  0
  152.5636  140.3494  155.9086 H   0  0  0  0  0  0  0  0  0  0  0  0
  151.4856  139.6625  154.6964 H   0  0  0  0  0  0  0  0  0  0  0  0
  153.2095  139.2520  154.6951 H   0  0  0  0  0  0  0  0  0  0  0  0
  151.0188  137.4120  154.7752 H   0  0  0  0  0  0  0  0  0  0  0  0
  152.5977  136.7259  155.0703 H   0  0  0  0  0  0  0  0  0  0  0  0
  151.7559  135.8467  157.3252 H   0  0  0  0  0  0  0  0  0  0  0  0
  150.2262  136.6042  157.0624 H   0  0  0  0  0  0  0  0  0  0  0  0
  149.1192  136.3929  153.4805 H   0  0  0  0  0  0  0  0  0  0  0  0
  148.5199  138.9888  154.5438 H   0  0  0  0  0  0  0  0  0  0  0  0
  146.9600  138.5803  155.2688 H   0  0  0  0  0  0  0  0  0  0  0  0
  147.3725  137.9667  153.6653 H   0  0  0  0  0  0  0  0  0  0  0  0
  147.9783  134.7264  152.9562 H   0  0  0  0  0  0  0  0  0  0  0  0
  148.4644  132.3686  151.7283 H   0  0  0  0  0  0  0  0  0  0  0  0
  147.4556  131.9073  153.0931 H   0  0  0  0  0  0  0  0  0  0  0  0
  145.8364  131.1334  151.2291 H   0  0  0  0  0  0  0  0  0  0  0  0
  143.7997  131.8319  149.9998 H   0  0  0  0  0  0  0  0  0  0  0  0
  143.2653  134.2481  149.7383 H   0  0  0  0  0  0  0  0  0  0  0  0
  144.7776  135.9680  150.7129 H   0  0  0  0  0  0  0  0  0  0  0  0
  146.8153  135.2790  151.9470 H   0  0  0  0  0  0  0  0  0  0  0  0
  1  2  1  0  0  0  0
  1 26  1  0  0  0  0
  1 27  1  0  0  0  0
  1 28  1  0  0  0  0
  2  3  1  0  0  0  0
  3  4  1  0  0  0  0
  3 29  1  0  0  0  0
  3 30  1  0  0  0  0
  4  5  1  0  0  0  0
  4 31  1  0  0  0  0
  4 32  1  0  0  0  0
  5 23  1  0  0  0  0
  5  6  1  0  0  0  0
  6  7  1  0  0  0  0
  6 11  2  0  0  0  0
  7  8  1  0  0  0  0
  7 33  1  0  0  0  0
  8  9  1  0  0  0  0
  8 10  2  0  0  0  0
  9 34  1  0  0  0  0
  9 35  1  0  0  0  0
  9 36  1  0  0  0  0
 11 12  1  0  0  0  0
 11 20  1  0  0  0  0
 12 13  1  0  0  0  0
 12 37  1  0  0  0  0
 13 14  1  0  0  0  0
 13 38  1  0  0  0  0
 13 39  1  0  0  0  0
 14 19  1  0  0  0  0
 14 15  2  0  0  0  0
 15 16  1  0  0  0  0
 15 40  1  0  0  0  0
 16 17  2  0  0  0  0
 16 41  1  0  0  0  0
 17 18  1  0  0  0  0
 17 42  1  0  0  0  0
 18 19  2  0  0  0  0
 18 43  1  0  0  0  0
 19 44  1  0  0  0  0
 20 21  2  0  0  0  0
 20 22  1  0  0  0  0
 22 25  1  0  0  0  0
 22 23  1  0  0  0  0
 23 24  2  0  0  0  0
M  END
> <s_m_source_file>
AV-unprocessed.smi

> <i_m_source_file_index>
801

> <i_lp_mmshare_version>
43012

> <i_f3d_flags>
0

> <s_epik_input>
W0NIM11PW0NIMl1bQ0gyXW4xYyhbTkhdQyg9TylbQ0gzXSljKGMoPU8pW25IXWMxPU8pW05IXVtDSDJdYzJbY0hdW2NIXVtjSF1bY0hdW2NIXTI=

> <s_epik_cmdline>
J2VwaWtfcHl0aG9uJywgJy1waCcsICc3LjAnLCAnLXRuJywgJzgnLCAnLW1hJywgJzIwMCcsICctbWV0YWxfYmluZGluZycsICctaW1hZScsICc8aW5maWxlLm1hZT4nLCAnLW9tYWUnLCAnPG91dGZpbGUubWFlPic=

> <r_lp_tautomer_probability>
0.999901

> <r_epik_Ionization_Penalty>
0.000786563

> <r_epik_Ionization_Penalty_Charging>
0.000779429

> <r_epik_Ionization_Penalty_Neutral>
7.13436e-06

> <r_epik_State_Penalty>
0.00049961

> <r_epik_Charging_Adjusted_Penalty>
0.00127904

> <i_epik_Tot_Q>
0

> <i_epik_Tot_abs_Q>
0

> <r_epik_Metal_State_Penalty>
0.266924

> <b_epik_Metal_Only>
0

> <s_lp_Force_Field>
OPLS_2005

> <r_lp_Energy>
22.7844

> <b_lp_Chiralities_Consistent>
1

> <s_lp_Variant>
AV-unprocessed.smi:801-1

> <Gold.Version>
5.8.1

> <Gold.Id.Protein>
6NUR|6NUR_protein|mol2

> <Gold.PLP.Fitness>
42.5315

> <Gold.PLP.PLP>
-37.3829

> <Gold.PLP.part.hbond>
-3.0000

> <Gold.PLP.part.metal>
0.0000

> <Gold.PLP.part.buried>
-2.8742

> <Gold.PLP.part.nonpolar>
-31.2541

> <Gold.PLP.part.repulsive>
0.1303

> <Gold.PLP.ligand.clash>
0.0000

> <Gold.PLP.ligand.torsion>
0.9027

> <Gold.PLP.Chemscore.Hbond>
1.9507

> <Gold.PLP.Chemscore.CHOScore>
0.0000

> <Gold.PLP.Chemscore.Metal>
0.0000

> <Gold.Chemscore.Hbonds>
donor molecule, donor type, donor heavy atom, donor atom, acceptor molecule, acceptor atom, score
      L1  H     7    33       P1  7948  1.00
      L1  H    12    37       P1  7948  0.51
      P1  H  6896  6907       L1    24  0.43

> <Gold.PLP.Chemscore.Internal.Correction>
1.1019

> <Gold.Rescore>
     Score         DG    S(hbond)    S(metal)    S(lipo)     H(rot)  DE(clash)    DE(int)     intcor
     10.90     -14.32       1.68        0.00      71.78       2.02       0.17       3.25       ----

> <Gold.Chemscore.Fitness>
10.8969

> <Gold.Chemscore.DG>
-14.3178

> <Gold.Chemscore.ZeroCoef>
-5.4800

> <Gold.Chemscore.Hbond>
1.6778

> <Gold.Chemscore.Metal>
0.0000

> <Gold.Chemscore.Lipo>
71.7751

> <Gold.Chemscore.Internal_Hbond>
0.0000

> <Gold.Chemscore.DEClash>
0.1659

> <Gold.Chemscore.DEInternal>
3.2550

> <Gold.Chemscore.Rot>
2.0170

> <Gold.Chemscore.Internal.Correction>
   9.000000E+99

> <Gold.Chemscore.Hbonds>
donor molecule, donor type, donor heavy atom, donor atom, acceptor molecule, acceptor atom, score
      L1  H     7    33       P1  7948  0.97
      L1  H    12    37       P1  7948  0.42
      P1  H  6896  6907       L1    24  0.39

> <Gold.Chemscore.Hbond.Weighted>
-5.6037

> <Gold.Chemscore.Metal.Weighted>
-0.0000

> <Gold.Chemscore.Lipo.Weighted>
-8.3977

> <Gold.Chemscore.Internal_Hbond.Weighted>
0.0000

> <Gold.Chemscore.DEClash.Weighted>
0.1659

> <Gold.Chemscore.DEInternal.Weighted>
3.2550

> <Gold.Chemscore.Rot.Weighted>
5.1636

> <Gold.Chemscore.Internal.Correction.Weighted>
   9.000000E+99

> <Gold.Protein.RotatedTorsions>
[ 6907 6896 6895 6894 ] final  178.90 input  -60.11 | X-H torsion
[ 7974 7965 7964 7962 ] final   67.60 input  175.53 | X-H torsion
[ 8008 7997 7996 7995 ] final   -9.95 input   59.86 | X-H torsion
[ 10167 10162 10161 10158 ] final  -84.52 input  -65.29 | X-H torsion
[ 10718 10713 10712 10709 ] final  -95.45 input   66.30 | X-H torsion
[ 10763 10752 10751 10750 ] final  -96.15 input  -60.55 | X-H torsion
[ 11005 11000 10999 10996 ] final  121.49 input  -57.11 | X-H torsion

> <Gold.Protein.ActiveResidues>
 VAL166  LYS551  ARG553  GLY616  TRP617  ASP618  TYR619  PRO620  LYS621  CYS622 
 ASP623  PHE694  ASN695  SER759  ASP760  ASP761  ALA762  ILE779  LEU786  VAL792 
 PHE793  MET794  SER795  GLU796  ALA797  LYS798  CYS799  TRP800  GLU811  SER814 

> <Gold.Protein.RotatedAtoms>
  151.6803  133.3312  159.3217 H   0  0  0  0  0  0  0  0  0  0  0  0  # atno 6907 bound_to 6896
  150.7826  134.6786  159.6441 H   0  0  0  0  0  0  0  0  0  0  0  0  # atno 6908 bound_to 6896
  152.3887  134.6479  160.0168 H   0  0  0  0  0  0  0  0  0  0  0  0  # atno 6909 bound_to 6896
  145.8126  139.3041  143.1090 H   0  0  0  0  0  0  0  0  0  0  0  0  # atno 7974 bound_to 7965
  154.5599  140.2341  155.8351 H   0  0  0  0  0  0  0  0  0  0  0  0  # atno 8008 bound_to 7997
  156.2020  140.3050  155.9507 H   0  0  0  0  0  0  0  0  0  0  0  0  # atno 8009 bound_to 7997
  155.2908  140.0426  157.3013 H   0  0  0  0  0  0  0  0  0  0  0  0  # atno 8010 bound_to 7997
  140.4124  143.2617  151.9000 H   0  0  0  0  0  0  0  0  0  0  0  0  # atno 10167 bound_to 10162
  156.0044  130.5110  150.6079 H   0  0  0  0  0  0  0  0  0  0  0  0  # atno 10718 bound_to 10713
  154.7213  135.5094  153.8816 H   0  0  0  0  0  0  0  0  0  0  0  0  # atno 10763 bound_to 10752
  153.0865  135.6647  153.9948 H   0  0  0  0  0  0  0  0  0  0  0  0  # atno 10764 bound_to 10752
  153.9770  135.3032  155.3402 H   0  0  0  0  0  0  0  0  0  0  0  0  # atno 10765 bound_to 10752
  139.9228  134.9639  156.7966 H   0  0  0  0  0  0  0  0  0  0  0  0  # atno 11005 bound_to 11000
  145.9761  140.8721  143.0138 LP  0  0  0  0  0  0  0  0  0  0  0  0  # atno 17320 bound_to 7965
  144.6756  140.2013  143.7386 LP  0  0  0  0  0  0  0  0  0  0  0  0  # atno 17321 bound_to 7965
  139.4782  144.5523  151.8367 LP  0  0  0  0  0  0  0  0  0  0  0  0  # atno 17342 bound_to 10162
  140.4623  144.1704  150.5907 LP  0  0  0  0  0  0  0  0  0  0  0  0  # atno 17343 bound_to 10162
  157.3916  131.0796  151.1388 LP  0  0  0  0  0  0  0  0  0  0  0  0  # atno 17370 bound_to 10713
  157.2078  130.6424  149.5763 LP  0  0  0  0  0  0  0  0  0  0  0  0  # atno 17371 bound_to 10713
  140.6424  133.9806  155.7714 LP  0  0  0  0  0  0  0  0  0  0  0  0  # atno 17394 bound_to 11000
  141.0763  134.0130  157.3453 LP  0  0  0  0  0  0  0  0  0  0  0  0  # atno 17395 bound_to 11000

$$$$
