AV-unprocessed.smi:1703|AV-procd|sdf|6865|dock6
  -GOLD-   22720 8 53D 1   1.00000     0.00000
 Structure written by MMmdl.
 49 51  0  0  0  0  0  0  0  0  2 V2000
  145.7489  134.2498  154.8482 C   0  0  0  0  0  0  0  0  0  0  0  0
  146.1303  134.8574  153.4940 C   0  0  2  0  0  0  0  0  0  0  0  0
  146.1220  136.3976  153.5236 C   0  0  0  0  0  0  0  0  0  0  0  0
  146.4261  136.9401  152.1770 N   0  3  2  0  0  0  0  0  0  0  0  0
  146.5050  138.4229  152.1313 C   0  0  0  0  0  0  0  0  0  0  0  0
  147.3852  139.0012  153.2567 C   0  0  1  0  0  0  0  0  0  0  0  0
  148.7116  138.5422  153.0760 O   0  0  0  0  0  0  0  0  0  0  0  0
  147.3679  140.5432  153.2619 C   0  0  0  0  0  0  0  0  0  0  0  0
  147.6405  141.1054  154.5784 N   0  0  0  0  0  0  0  0  0  0  0  0
  146.8080  141.8272  155.3708 C   0  0  0  0  0  0  0  0  0  0  0  0
  145.4090  142.1707  154.9602 C   0  0  0  0  0  0  0  0  0  0  0  0
  144.5621  141.0426  154.9150 O   0  0  0  0  0  0  0  0  0  0  0  0
  147.3140  142.2180  156.5408 N   0  0  0  0  0  0  0  0  0  0  0  0
  148.5963  141.7067  156.5036 C   0  0  0  0  0  0  0  0  0  0  0  0
  149.6410  141.7783  157.4527 C   0  0  0  0  0  0  0  0  0  0  0  0
  150.8853  141.1681  157.1919 C   0  0  0  0  0  0  0  0  0  0  0  0
  151.1032  140.4807  155.9805 C   0  0  0  0  0  0  0  0  0  0  0  0
  150.0764  140.3983  155.0207 C   0  0  0  0  0  0  0  0  0  0  0  0
  148.8348  141.0069  155.2868 C   0  0  0  0  0  0  0  0  0  0  0  0
  145.4847  136.3871  151.1750 C   0  0  0  0  0  0  0  0  0  0  0  0
  145.5059  134.8468  151.2080 C   0  0  2  0  0  0  0  0  0  0  0  0
  144.4882  134.2331  150.2404 C   0  0  0  0  0  0  0  0  0  0  0  0
  145.1906  134.4059  152.5243 O   0  0  0  0  0  0  0  0  0  0  0  0
  146.4432  134.5620  155.6287 H   0  0  0  0  0  0  0  0  0  0  0  0
  145.7664  133.1604  154.8051 H   0  0  0  0  0  0  0  0  0  0  0  0
  144.7465  134.5548  155.1502 H   0  0  0  0  0  0  0  0  0  0  0  0
  147.1258  134.5011  153.2224 H   0  0  0  0  0  0  0  0  0  0  0  0
  145.1475  136.7628  153.8524 H   0  0  0  0  0  0  0  0  0  0  0  0
  146.8550  136.7478  154.2498 H   0  0  0  0  0  0  0  0  0  0  0  0
  146.9187  138.7384  151.1720 H   0  0  0  0  0  0  0  0  0  0  0  0
  145.4976  138.8396  152.1787 H   0  0  0  0  0  0  0  0  0  0  0  0
  147.0377  138.6458  154.2257 H   0  0  0  0  0  0  0  0  0  0  0  0
  149.0264  138.8463  152.2382 H   0  0  0  0  0  0  0  0  0  0  0  0
  148.1063  140.9330  152.5599 H   0  0  0  0  0  0  0  0  0  0  0  0
  146.4030  140.9116  152.9139 H   0  0  0  0  0  0  0  0  0  0  0  0
  144.9925  142.9100  155.6438 H   0  0  0  0  0  0  0  0  0  0  0  0
  145.4268  142.6319  153.9722 H   0  0  0  0  0  0  0  0  0  0  0  0
  144.3757  140.8430  154.0104 H   0  0  0  0  0  0  0  0  0  0  0  0
  149.4842  142.3035  158.3830 H   0  0  0  0  0  0  0  0  0  0  0  0
  151.6761  141.2283  157.9249 H   0  0  0  0  0  0  0  0  0  0  0  0
  152.0595  140.0165  155.7888 H   0  0  0  0  0  0  0  0  0  0  0  0
  150.2418  139.8714  154.0930 H   0  0  0  0  0  0  0  0  0  0  0  0
  144.4785  136.7579  151.3777 H   0  0  0  0  0  0  0  0  0  0  0  0
  145.7615  136.7349  150.1787 H   0  0  0  0  0  0  0  0  0  0  0  0
  146.5002  134.4865  150.9379 H   0  0  0  0  0  0  0  0  0  0  0  0
  144.6889  134.5390  149.2134 H   0  0  0  0  0  0  0  0  0  0  0  0
  143.4715  134.5391  150.4887 H   0  0  0  0  0  0  0  0  0  0  0  0
  144.5255  133.1439  150.2749 H   0  0  0  0  0  0  0  0  0  0  0  0
  147.3429  136.6010  151.9209 H   0  0  0  0  0  0  0  0  0  0  0  0
  1  2  1  0  0  0  0
  1 24  1  0  0  0  0
  1 25  1  0  0  0  0
  1 26  1  0  0  0  0
  2 23  1  0  0  0  0
  2  3  1  0  0  0  0
  2 27  1  0  0  0  0
  3  4  1  0  0  0  0
  3 28  1  0  0  0  0
  3 29  1  0  0  0  0
  4  5  1  0  0  0  0
  4 20  1  0  0  0  0
  4 49  1  0  0  0  0
  5  6  1  0  0  0  0
  5 30  1  0  0  0  0
  5 31  1  0  0  0  0
  6  7  1  0  0  0  0
  6  8  1  0  0  0  0
  6 32  1  0  0  0  0
  7 33  1  0  0  0  0
  8  9  1  0  0  0  0
  8 34  1  0  0  0  0
  8 35  1  0  0  0  0
  9 19  1  0  0  0  0
  9 10  1  0  0  0  0
 10 11  1  0  0  0  0
 10 13  2  0  0  0  0
 11 12  1  0  0  0  0
 11 36  1  0  0  0  0
 11 37  1  0  0  0  0
 12 38  1  0  0  0  0
 13 14  1  0  0  0  0
 14 19  2  0  0  0  0
 14 15  1  0  0  0  0
 15 16  2  0  0  0  0
 15 39  1  0  0  0  0
 16 17  1  0  0  0  0
 16 40  1  0  0  0  0
 17 18  2  0  0  0  0
 17 41  1  0  0  0  0
 18 19  1  0  0  0  0
 18 42  1  0  0  0  0
 20 21  1  0  0  0  0
 20 43  1  0  0  0  0
 20 44  1  0  0  0  0
 21 22  1  0  0  0  0
 21 23  1  0  0  0  0
 21 45  1  0  0  0  0
 22 46  1  0  0  0  0
 22 47  1  0  0  0  0
 22 48  1  0  0  0  0
M  CHG  1   4   1
M  END
> <s_m_source_file>
AV-unprocessed.smi

> <i_m_source_file_index>
1703

> <i_lp_mmshare_version>
43012

> <i_f3d_flags>
0

> <s_epik_input>
W0NIM11bQ0BASF0xW0NIMl1OKFtDSDJdW0NASF0oTzEpW0NIM10pW0NIMl1bQ0BIXShbT0hdKVtDSDJdbihjKG4yKVtDSDJdW09IXSljKGMyMylbY0hdW2NIXVtjSF1bY0hdMw==

> <s_epik_cmdline>
J2VwaWtfcHl0aG9uJywgJy1waCcsICc3LjAnLCAnLXRuJywgJzgnLCAnLW1hJywgJzIwMCcsICctbWV0YWxfYmluZGluZycsICctaW1hZScsICc8aW5maWxlLm1hZT4nLCAnLW9tYWUnLCAnPG91dGZpbGUubWFlPic=

> <r_epik_Ionization_Penalty>
0.655661

> <r_epik_Ionization_Penalty_Charging>
0.608065

> <r_epik_Ionization_Penalty_Neutral>
0.0475963

> <r_epik_State_Penalty>
0.695267

> <r_epik_Charging_Adjusted_Penalty>
1.30333

> <i_epik_Tot_Q>
1

> <i_epik_Tot_abs_Q>
1

> <r_epik_Metal_State_Penalty>
0.653591

> <b_epik_Metal_Only>
0

> <s_lp_Force_Field>
OPLS_2005

> <r_lp_Energy>
21.6457

> <b_lp_Chiralities_Consistent>
1

> <s_lp_Variant>
AV-unprocessed.smi:1703-13

> <Gold.Version>
5.8.1

> <Gold.Id.Protein>
6NUR|6NUR_protein|mol2

> <Gold.PLP.Fitness>
48.7895

> <Gold.PLP.PLP>
-37.6237

> <Gold.PLP.part.hbond>
-3.9823

> <Gold.PLP.part.metal>
0.0000

> <Gold.PLP.part.buried>
0.2192

> <Gold.PLP.part.nonpolar>
-33.7964

> <Gold.PLP.part.repulsive>
0.8016

> <Gold.PLP.ligand.clash>
0.0000

> <Gold.PLP.ligand.torsion>
0.4468

> <Gold.PLP.Chemscore.Hbond>
4.0000

> <Gold.PLP.Chemscore.CHOScore>
0.0000

> <Gold.PLP.Chemscore.Metal>
0.0000

> <Gold.Chemscore.Hbonds>
donor molecule, donor type, donor heavy atom, donor atom, acceptor molecule, acceptor atom, score
      L1  H     4    49       P1  7948  2.00
      L1  H     7    33       P1  7957  1.00
      L1  H    12    38       P1 10175  1.00

> <Gold.PLP.Chemscore.Internal.Correction>
0.0593

> <Gold.Rescore>
     Score         DG    S(hbond)    S(metal)    S(lipo)     H(rot)  DE(clash)    DE(int)     intcor
     16.74     -17.27       2.96        0.00      81.02       2.96       0.02       0.51       ----

> <Gold.Chemscore.Fitness>
16.7358

> <Gold.Chemscore.DG>
-17.2701

> <Gold.Chemscore.ZeroCoef>
-5.4800

> <Gold.Chemscore.Hbond>
2.9614

> <Gold.Chemscore.Metal>
0.0000

> <Gold.Chemscore.Lipo>
81.0215

> <Gold.Chemscore.Internal_Hbond>
0.0000

> <Gold.Chemscore.DEClash>
0.0246

> <Gold.Chemscore.DEInternal>
0.5097

> <Gold.Chemscore.Rot>
2.9611

> <Gold.Chemscore.Internal.Correction>
   9.000000E+99

> <Gold.Chemscore.Hbonds>
donor molecule, donor type, donor heavy atom, donor atom, acceptor molecule, acceptor atom, score
      L1  H     4    49       P1  7948  0.99
      L1  H     7    33       P1  7957  0.86
      L1  H    12    38       P1 10175  0.96

> <Gold.Chemscore.Hbond.Weighted>
-9.8910

> <Gold.Chemscore.Metal.Weighted>
-0.0000

> <Gold.Chemscore.Lipo.Weighted>
-9.4795

> <Gold.Chemscore.Internal_Hbond.Weighted>
0.0000

> <Gold.Chemscore.DEClash.Weighted>
0.0246

> <Gold.Chemscore.DEInternal.Weighted>
0.5097

> <Gold.Chemscore.Rot.Weighted>
7.5803

> <Gold.Chemscore.Internal.Correction.Weighted>
   9.000000E+99

> <Gold.Protein.RotatedTorsions>
[ 6907 6896 6895 6894 ] final  -58.23 input  -60.11 | X-H torsion
[ 7974 7965 7964 7962 ] final   82.06 input  175.53 | X-H torsion
[ 8008 7997 7996 7995 ] final  -11.99 input   59.86 | X-H torsion
[ 10167 10162 10161 10158 ] final   28.97 input  -65.29 | X-H torsion
[ 10718 10713 10712 10709 ] final  -70.10 input   66.30 | X-H torsion
[ 10763 10752 10751 10750 ] final  -96.48 input  -60.55 | X-H torsion
[ 11005 11000 10999 10996 ] final   14.85 input  -57.11 | X-H torsion

> <Gold.Protein.ActiveResidues>
 VAL166  LYS551  ARG553  GLY616  TRP617  ASP618  TYR619  PRO620  LYS621  CYS622 
 ASP623  PHE694  ASN695  SER759  ASP760  ASP761  ALA762  ILE779  LEU786  VAL792 
 PHE793  MET794  SER795  GLU796  ALA797  LYS798  CYS799  TRP800  GLU811  SER814 

> <Gold.Protein.RotatedAtoms>
  150.8023  134.7126  159.6611 H   0  0  0  0  0  0  0  0  0  0  0  0  # atno 6907 bound_to 6896
  152.4141  134.6069  160.0025 H   0  0  0  0  0  0  0  0  0  0  0  0  # atno 6908 bound_to 6896
  151.6304  133.3295  159.3143 H   0  0  0  0  0  0  0  0  0  0  0  0  # atno 6909 bound_to 6896
  145.6300  139.2403  143.2090 H   0  0  0  0  0  0  0  0  0  0  0  0  # atno 7974 bound_to 7965
  154.5416  140.2288  155.8632 H   0  0  0  0  0  0  0  0  0  0  0  0  # atno 8008 bound_to 7997
  156.1864  140.3088  155.9208 H   0  0  0  0  0  0  0  0  0  0  0  0  # atno 8009 bound_to 7997
  155.3247  140.0442  157.3031 H   0  0  0  0  0  0  0  0  0  0  0  0  # atno 8010 bound_to 7997
  140.4806  144.0621  150.6264 H   0  0  0  0  0  0  0  0  0  0  0  0  # atno 10167 bound_to 10162
  156.0424  130.4325  150.2245 H   0  0  0  0  0  0  0  0  0  0  0  0  # atno 10718 bound_to 10713
  154.7243  135.5082  153.8861 H   0  0  0  0  0  0  0  0  0  0  0  0  # atno 10763 bound_to 10752
  153.0890  135.6654  153.9899 H   0  0  0  0  0  0  0  0  0  0  0  0  # atno 10764 bound_to 10752
  153.9715  135.3038  155.3406 H   0  0  0  0  0  0  0  0  0  0  0  0  # atno 10765 bound_to 10752
  140.4649  134.1089  155.7722 H   0  0  0  0  0  0  0  0  0  0  0  0  # atno 11005 bound_to 11000
  146.1364  140.7117  142.9388 LP  0  0  0  0  0  0  0  0  0  0  0  0  # atno 17320 bound_to 7965
  144.7197  140.4332  143.7017 LP  0  0  0  0  0  0  0  0  0  0  0  0  # atno 17321 bound_to 7965
  140.3862  143.2776  152.0113 LP  0  0  0  0  0  0  0  0  0  0  0  0  # atno 17342 bound_to 10162
  139.4833  144.6114  151.7426 LP  0  0  0  0  0  0  0  0  0  0  0  0  # atno 17343 bound_to 10162
  157.0339  131.0015  151.3304 LP  0  0  0  0  0  0  0  0  0  0  0  0  # atno 17370 bound_to 10713
  157.5258  130.8027  149.7860 LP  0  0  0  0  0  0  0  0  0  0  0  0  # atno 17371 bound_to 10713
  141.1604  133.8804  157.1864 LP  0  0  0  0  0  0  0  0  0  0  0  0  # atno 17394 bound_to 11000
  139.9921  135.0060  157.0000 LP  0  0  0  0  0  0  0  0  0  0  0  0  # atno 17395 bound_to 11000

$$$$
