AV-unprocessed.smi:3243|AV-procd|sdf|12395|dock7
  -GOLD-   2272018263D 1   1.00000     0.00000
 Structure written by MMmdl.
 37 38  0  0  0  0  0  0  0  0  1 V2000
  145.8606  142.6513  158.3899 C   0  0  0  0  0  0  0  0  0  0  0  0
  145.2884  142.7991  156.9727 C   0  0  0  0  0  0  0  0  0  0  0  0
  143.9273  142.1061  156.8147 C   0  0  0  0  0  0  0  0  0  0  0  0
  146.2665  142.3555  155.9292 C   0  0  0  0  0  0  0  0  0  0  0  0
  147.4739  141.8610  156.2175 N   0  0  0  0  0  0  0  0  0  0  0  0
  148.2030  141.5111  155.0766 C   0  0  0  0  0  0  0  0  0  0  0  0
  149.5793  140.9346  155.2153 C   0  0  0  0  0  0  0  0  0  0  0  0
  150.0581  140.9192  156.6766 C   0  0  0  0  0  0  0  0  0  0  0  0
  150.9367  142.0466  156.9666 N   0  0  0  0  0  0  0  0  0  0  0  0
  150.9565  142.7340  158.1185 C   0  0  0  0  0  0  0  0  0  0  0  0
  150.2059  142.4784  159.0611 O   0  0  0  0  0  0  0  0  0  0  0  0
  151.9736  143.8322  158.1455 C   0  0  1  0  0  0  0  0  0  0  0  0
  152.0651  144.6931  159.3906 C   0  0  0  0  0  0  0  0  0  0  0  0
  153.1799  143.7266  159.0691 C   0  0  1  0  0  0  0  0  0  0  0  0
  153.4625  142.5374  159.9706 C   0  0  0  0  0  0  0  0  0  0  0  0
  147.5253  141.7487  153.9071 C   0  0  0  0  0  0  0  0  0  0  0  0
  145.9449  142.4207  154.1975 S   0  0  0  0  0  0  0  0  0  0  0  0
  146.7883  143.2140  158.4980 H   0  0  0  0  0  0  0  0  0  0  0  0
  146.0735  141.6085  158.6270 H   0  0  0  0  0  0  0  0  0  0  0  0
  145.1597  143.0245  159.1370 H   0  0  0  0  0  0  0  0  0  0  0  0
  145.1165  143.8650  156.8142 H   0  0  0  0  0  0  0  0  0  0  0  0
  143.5116  142.2810  155.8220 H   0  0  0  0  0  0  0  0  0  0  0  0
  143.2090  142.4821  157.5434 H   0  0  0  0  0  0  0  0  0  0  0  0
  144.0095  141.0282  156.9569 H   0  0  0  0  0  0  0  0  0  0  0  0
  149.5945  139.9207  154.8130 H   0  0  0  0  0  0  0  0  0  0  0  0
  150.2824  141.5060  154.6082 H   0  0  0  0  0  0  0  0  0  0  0  0
  149.2020  140.9789  157.3494 H   0  0  0  0  0  0  0  0  0  0  0  0
  150.5656  139.9799  156.9033 H   0  0  0  0  0  0  0  0  0  0  0  0
  151.5826  142.3200  156.2402 H   0  0  0  0  0  0  0  0  0  0  0  0
  152.1580  144.3257  157.1923 H   0  0  0  0  0  0  0  0  0  0  0  0
  152.2542  145.7545  159.2436 H   0  0  0  0  0  0  0  0  0  0  0  0
  151.4213  144.4585  160.2365 H   0  0  0  0  0  0  0  0  0  0  0  0
  154.0906  144.1562  158.6560 H   0  0  0  0  0  0  0  0  0  0  0  0
  152.5849  142.2547  160.5508 H   0  0  0  0  0  0  0  0  0  0  0  0
  154.2601  142.7859  160.6706 H   0  0  0  0  0  0  0  0  0  0  0  0
  153.7805  141.6822  159.3744 H   0  0  0  0  0  0  0  0  0  0  0  0
  147.8584  141.5675  152.8958 H   0  0  0  0  0  0  0  0  0  0  0  0
  1  2  1  0  0  0  0
  1 18  1  0  0  0  0
  1 19  1  0  0  0  0
  1 20  1  0  0  0  0
  2  3  1  0  0  0  0
  2  4  1  0  0  0  0
  2 21  1  0  0  0  0
  3 22  1  0  0  0  0
  3 23  1  0  0  0  0
  3 24  1  0  0  0  0
  4 17  1  0  0  0  0
  4  5  2  0  0  0  0
  5  6  1  0  0  0  0
  6  7  1  0  0  0  0
  6 16  2  0  0  0  0
  7  8  1  0  0  0  0
  7 25  1  0  0  0  0
  7 26  1  0  0  0  0
  8  9  1  0  0  0  0
  8 27  1  0  0  0  0
  8 28  1  0  0  0  0
  9 10  1  0  0  0  0
  9 29  1  0  0  0  0
 10 11  2  0  0  0  0
 10 12  1  0  0  0  0
 12 14  1  0  0  0  0
 12 13  1  0  0  0  0
 12 30  1  0  0  0  0
 13 14  1  0  0  0  0
 13 31  1  0  0  0  0
 13 32  1  0  0  0  0
 14 15  1  0  0  0  0
 14 33  1  0  0  0  0
 15 34  1  0  0  0  0
 15 35  1  0  0  0  0
 15 36  1  0  0  0  0
 16 17  1  0  0  0  0
 16 37  1  0  0  0  0
M  END
> <s_m_source_file>
AV-unprocessed.smi

> <i_m_source_file_index>
3243

> <i_lp_mmshare_version>
43012

> <i_f3d_flags>
0

> <s_epik_input>
W0NIM11bQ0hdKFtDSDNdKWMxbmMoW2NIXXMxKVtDSDJdW0NIMl1bTkhdQyg9TylbQ0BASF0yW0NIMl1bQ0BIXTJbQ0gzXQ==

> <s_epik_cmdline>
J2VwaWtfcHl0aG9uJywgJy1waCcsICc3LjAnLCAnLXRuJywgJzgnLCAnLW1hJywgJzIwMCcsICctbWV0YWxfYmluZGluZycsICctaW1hZScsICc8aW5maWxlLm1hZT4nLCAnLW9tYWUnLCAnPG91dGZpbGUubWFlPic=

> <r_epik_Ionization_Penalty>
0.00084212

> <r_epik_Ionization_Penalty_Charging>
0

> <r_epik_Ionization_Penalty_Neutral>
0.00084212

> <r_epik_State_Penalty>
0.000542609

> <r_epik_Charging_Adjusted_Penalty>
0.000542609

> <i_epik_Tot_Q>
0

> <i_epik_Tot_abs_Q>
0

> <r_epik_Metal_State_Penalty>
-0

> <b_epik_Metal_Only>
0

> <s_lp_Force_Field>
OPLS_2005

> <r_lp_Energy>
-2.57645

> <b_lp_Chiralities_Consistent>
1

> <s_lp_Variant>
AV-unprocessed.smi:3243-2

> <Gold.Version>
5.8.1

> <Gold.Id.Protein>
6NUR|6NUR_protein|mol2

> <Gold.PLP.Fitness>
39.3211

> <Gold.PLP.PLP>
-37.2691

> <Gold.PLP.part.hbond>
-0.7745

> <Gold.PLP.part.metal>
0.0000

> <Gold.PLP.part.buried>
-5.2256

> <Gold.PLP.part.nonpolar>
-32.1503

> <Gold.PLP.part.repulsive>
0.8266

> <Gold.PLP.ligand.clash>
0.0000

> <Gold.PLP.ligand.torsion>
0.5534

> <Gold.PLP.Chemscore.Hbond>
0.0000

> <Gold.PLP.Chemscore.CHOScore>
1.0000

> <Gold.PLP.Chemscore.Metal>
0.0000

> <Gold.Chemscore.Hbonds>
donor molecule, donor type, donor heavy atom, donor atom, acceptor molecule, acceptor atom, score
      L1  C    16    37       P1  7957  0.13

> <Gold.PLP.Chemscore.Internal.Correction>
0.1589

> <Gold.Rescore>
     Score         DG    S(hbond)    S(metal)    S(lipo)     H(rot)  DE(clash)    DE(int)     intcor
     11.91     -12.69       0.00        0.00      94.13       1.49       0.18       0.60       ----

> <Gold.Chemscore.Fitness>
11.9120

> <Gold.Chemscore.DG>
-12.6867

> <Gold.Chemscore.ZeroCoef>
-5.4800

> <Gold.Chemscore.Hbond>
0.0000

> <Gold.Chemscore.Metal>
0.0000

> <Gold.Chemscore.Lipo>
94.1309

> <Gold.Chemscore.Internal_Hbond>
0.0000

> <Gold.Chemscore.DEClash>
0.1757

> <Gold.Chemscore.DEInternal>
0.5990

> <Gold.Chemscore.Rot>
1.4870

> <Gold.Chemscore.Internal.Correction>
   9.000000E+99

> <Gold.Chemscore.Hbond.Weighted>
-0.0000

> <Gold.Chemscore.Metal.Weighted>
-0.0000

> <Gold.Chemscore.Lipo.Weighted>
-11.0133

> <Gold.Chemscore.Internal_Hbond.Weighted>
0.0000

> <Gold.Chemscore.DEClash.Weighted>
0.1757

> <Gold.Chemscore.DEInternal.Weighted>
0.5990

> <Gold.Chemscore.Rot.Weighted>
3.8067

> <Gold.Chemscore.Internal.Correction.Weighted>
   9.000000E+99

> <Gold.Protein.RotatedTorsions>
[ 6907 6896 6895 6894 ] final   81.82 input  -60.11 | X-H torsion
[ 7974 7965 7964 7962 ] final  -86.43 input  175.53 | X-H torsion
[ 8008 7997 7996 7995 ] final   14.43 input   59.86 | X-H torsion
[ 10167 10162 10161 10158 ] final   -8.16 input  -65.29 | X-H torsion
[ 10718 10713 10712 10709 ] final  149.02 input   66.30 | X-H torsion
[ 10763 10752 10751 10750 ] final  175.67 input  -60.55 | X-H torsion
[ 11005 11000 10999 10996 ] final  -38.29 input  -57.11 | X-H torsion

> <Gold.Protein.ActiveResidues>
 VAL166  LYS551  ARG553  GLY616  TRP617  ASP618  TYR619  PRO620  LYS621  CYS622 
 ASP623  PHE694  ASN695  SER759  ASP760  ASP761  ALA762  ILE779  LEU786  VAL792 
 PHE793  MET794  SER795  GLU796  ALA797  LYS798  CYS799  TRP800  GLU811  SER814 

> <Gold.Protein.RotatedAtoms>
  152.5280  134.3144  159.9125 H   0  0  0  0  0  0  0  0  0  0  0  0  # atno 6907 bound_to 6896
  151.3094  133.4081  159.2653 H   0  0  0  0  0  0  0  0  0  0  0  0  # atno 6908 bound_to 6896
  151.0052  134.9370  159.8033 H   0  0  0  0  0  0  0  0  0  0  0  0  # atno 6909 bound_to 6896
  145.4799  140.9557  143.1870 H   0  0  0  0  0  0  0  0  0  0  0  0  # atno 7974 bound_to 7965
  154.8484  140.2926  155.5614 H   0  0  0  0  0  0  0  0  0  0  0  0  # atno 8008 bound_to 7997
  156.3015  140.2500  156.3371 H   0  0  0  0  0  0  0  0  0  0  0  0  # atno 8009 bound_to 7997
  154.9048  140.0390  157.1902 H   0  0  0  0  0  0  0  0  0  0  0  0  # atno 8010 bound_to 7997
  140.7051  143.5999  150.8808 H   0  0  0  0  0  0  0  0  0  0  0  0  # atno 10167 bound_to 10162
  157.3013  131.0871  151.1388 H   0  0  0  0  0  0  0  0  0  0  0  0  # atno 10718 bound_to 10713
  154.4707  135.2771  155.1644 H   0  0  0  0  0  0  0  0  0  0  0  0  # atno 10763 bound_to 10752
  154.3394  135.6173  153.5593 H   0  0  0  0  0  0  0  0  0  0  0  0  # atno 10764 bound_to 10752
  152.9864  135.5785  154.5088 H   0  0  0  0  0  0  0  0  0  0  0  0  # atno 10765 bound_to 10752
  141.0016  133.6952  156.2033 H   0  0  0  0  0  0  0  0  0  0  0  0  # atno 11005 bound_to 11000
  144.7895  139.6358  143.7119 LP  0  0  0  0  0  0  0  0  0  0  0  0  # atno 17320 bound_to 7965
  146.2347  139.5882  142.9532 LP  0  0  0  0  0  0  0  0  0  0  0  0  # atno 17321 bound_to 7965
  139.9724  143.6042  152.2969 LP  0  0  0  0  0  0  0  0  0  0  0  0  # atno 17342 bound_to 10162
  139.6633  144.7662  151.1920 LP  0  0  0  0  0  0  0  0  0  0  0  0  # atno 17343 bound_to 10162
  157.2746  130.6720  149.6036 LP  0  0  0  0  0  0  0  0  0  0  0  0  # atno 17370 bound_to 10713
  155.9672  130.4468  150.5557 LP  0  0  0  0  0  0  0  0  0  0  0  0  # atno 17371 bound_to 10713
  140.6879  134.4697  157.5589 LP  0  0  0  0  0  0  0  0  0  0  0  0  # atno 17394 bound_to 11000
  139.9042  134.8487  156.1773 LP  0  0  0  0  0  0  0  0  0  0  0  0  # atno 17395 bound_to 11000

$$$$
