AV-unprocessed.smi:1639|AV-procd|sdf|6553|dock2
  -GOLD-   22720 7233D 1   1.00000     0.00000
 Structure written by MMmdl.
 38 39  0  0  0  0  0  0  0  0  2 V2000
  151.7635  143.9931  159.3459 C   0  0  0  0  0  0  0  0  0  0  0  0
  151.4111  143.3885  157.9847 C   0  0  0  0  0  0  0  0  0  0  0  0
  151.6251  141.9861  158.0402 O   0  0  0  0  0  0  0  0  0  0  0  0
  151.6283  141.3386  156.7748 C   0  0  1  0  0  0  0  0  0  0  0  0
  152.3183  139.9627  156.8539 C   0  0  0  0  0  0  0  0  0  0  0  0
  152.1744  139.2231  155.5160 C   0  0  0  0  0  0  0  0  0  0  0  0
  150.6984  139.1074  155.1010 C   0  0  0  0  0  0  0  0  0  0  0  0
  150.0481  140.4190  155.0937 N   0  0  0  0  0  0  0  0  0  0  0  0
  148.8252  140.4868  154.3915 C   0  0  0  0  0  0  0  0  0  0  0  0
  148.0329  141.6536  154.4247 C   0  0  0  0  0  0  0  0  0  0  0  0
  146.8266  141.6419  153.6975 C   0  0  0  0  0  0  0  0  0  0  0  0
  145.8980  142.8372  153.6632 C   0  0  0  0  0  0  0  0  0  0  0  0
  146.4649  140.5380  152.9990 N   0  3  0  0  0  0  0  0  0  0  0  0
  147.2581  139.4584  153.0112 C   0  0  0  0  0  0  0  0  0  0  0  0
  146.8687  138.3477  152.3016 N   0  0  0  0  0  0  0  0  0  0  0  0
  148.4129  139.4090  153.6830 N   0  0  0  0  0  0  0  0  0  0  0  0
  150.1601  141.1768  156.3429 C   0  0  0  0  0  0  0  0  0  0  0  0
  151.6062  145.0717  159.3454 H   0  0  0  0  0  0  0  0  0  0  0  0
  152.8079  143.8076  159.5979 H   0  0  0  0  0  0  0  0  0  0  0  0
  151.1460  143.5654  160.1361 H   0  0  0  0  0  0  0  0  0  0  0  0
  150.3680  143.6014  157.7465 H   0  0  0  0  0  0  0  0  0  0  0  0
  152.0268  143.8463  157.2107 H   0  0  0  0  0  0  0  0  0  0  0  0
  152.1345  141.9643  156.0370 H   0  0  0  0  0  0  0  0  0  0  0  0
  153.3749  140.0686  157.0980 H   0  0  0  0  0  0  0  0  0  0  0  0
  151.8699  139.3697  157.6520 H   0  0  0  0  0  0  0  0  0  0  0  0
  152.7300  139.7562  154.7434 H   0  0  0  0  0  0  0  0  0  0  0  0
  152.6198  138.2306  155.5882 H   0  0  0  0  0  0  0  0  0  0  0  0
  150.6438  138.6226  154.1274 H   0  0  0  0  0  0  0  0  0  0  0  0
  150.1665  138.4611  155.8006 H   0  0  0  0  0  0  0  0  0  0  0  0
  148.3231  142.5234  154.9959 H   0  0  0  0  0  0  0  0  0  0  0  0
  146.1321  143.5375  154.4656 H   0  0  0  0  0  0  0  0  0  0  0  0
  144.8605  142.5228  153.7810 H   0  0  0  0  0  0  0  0  0  0  0  0
  145.9932  143.3616  152.7122 H   0  0  0  0  0  0  0  0  0  0  0  0
  146.0017  138.3513  151.7837 H   0  0  0  0  0  0  0  0  0  0  0  0
  147.4706  137.5393  152.2411 H   0  0  0  0  0  0  0  0  0  0  0  0
  149.5957  140.6625  157.1223 H   0  0  0  0  0  0  0  0  0  0  0  0
  149.7177  142.1669  156.2243 H   0  0  0  0  0  0  0  0  0  0  0  0
  145.5900  140.5397  152.4744 H   0  0  0  0  0  0  0  0  0  0  0  0
  1  2  1  0  0  0  0
  1 18  1  0  0  0  0
  1 19  1  0  0  0  0
  1 20  1  0  0  0  0
  2  3  1  0  0  0  0
  2 21  1  0  0  0  0
  2 22  1  0  0  0  0
  3  4  1  0  0  0  0
  4 17  1  0  0  0  0
  4  5  1  0  0  0  0
  4 23  1  0  0  0  0
  5  6  1  0  0  0  0
  5 24  1  0  0  0  0
  5 25  1  0  0  0  0
  6  7  1  0  0  0  0
  6 26  1  0  0  0  0
  6 27  1  0  0  0  0
  7  8  1  0  0  0  0
  7 28  1  0  0  0  0
  7 29  1  0  0  0  0
  8  9  1  0  0  0  0
  8 17  1  0  0  0  0
  9 16  1  0  0  0  0
  9 10  2  0  0  0  0
 10 11  1  0  0  0  0
 10 30  1  0  0  0  0
 11 12  1  0  0  0  0
 11 13  2  0  0  0  0
 12 31  1  0  0  0  0
 12 32  1  0  0  0  0
 12 33  1  0  0  0  0
 13 14  1  0  0  0  0
 13 38  1  0  0  0  0
 14 15  1  0  0  0  0
 14 16  2  0  0  0  0
 15 34  1  0  0  0  0
 15 35  1  0  0  0  0
 17 36  1  0  0  0  0
 17 37  1  0  0  0  0
M  CHG  1  13   1
M  END
> <s_m_source_file>
AV-unprocessed.smi

> <i_m_source_file_index>
1639

> <i_lp_mmshare_version>
43012

> <i_f3d_flags>
0

> <s_epik_input>
W0NIM11bQ0gyXU9bQ0BASF0xW0NIMl1bQ0gyXVtDSDJdTihbQ0gyXTEpYzJbY0hdYyhbQ0gzXSluYyhuMilbTkgyXQ==

> <s_epik_cmdline>
J2VwaWtfcHl0aG9uJywgJy1waCcsICc3LjAnLCAnLXRuJywgJzgnLCAnLW1hJywgJzIwMCcsICctbWV0YWxfYmluZGluZycsICctaW1hZScsICc8aW5maWxlLm1hZT4nLCAnLW9tYWUnLCAnPG91dGZpbGUubWFlPic=

> <r_lp_tautomer_probability>
0.575011

> <r_epik_Ionization_Penalty>
2.98813

> <r_epik_Ionization_Penalty_Charging>
2.98813

> <r_epik_Ionization_Penalty_Neutral>
3.21773e-06

> <r_epik_State_Penalty>
2.17402

> <r_epik_Charging_Adjusted_Penalty>
5.16215

> <i_epik_Tot_Q>
1

> <i_epik_Tot_abs_Q>
1

> <r_epik_Metal_State_Penalty>
2.51158

> <b_epik_Metal_Only>
0

> <s_lp_Force_Field>
OPLS_2005

> <r_lp_Energy>
14.4858

> <b_lp_Chiralities_Consistent>
1

> <s_lp_Variant>
AV-unprocessed.smi:1639-6

> <Gold.Version>
5.8.1

> <Gold.Id.Protein>
6NUR|6NUR_protein|mol2

> <Gold.PLP.Fitness>
44.2141

> <Gold.PLP.PLP>
-32.6046

> <Gold.PLP.part.hbond>
-2.4925

> <Gold.PLP.part.metal>
0.0000

> <Gold.PLP.part.buried>
-4.1229

> <Gold.PLP.part.nonpolar>
-27.3582

> <Gold.PLP.part.repulsive>
1.7974

> <Gold.PLP.ligand.clash>
0.0000

> <Gold.PLP.ligand.torsion>
0.6250

> <Gold.PLP.Chemscore.Hbond>
4.1422

> <Gold.PLP.Chemscore.CHOScore>
0.0000

> <Gold.PLP.Chemscore.Metal>
0.0000

> <Gold.Chemscore.Hbonds>
donor molecule, donor type, donor heavy atom, donor atom, acceptor molecule, acceptor atom, score
      L1  H    13    38       P1 10175  1.98
      L1  H    15    35       P1  7948  2.00
      P1  H  7989  7998       L1     8  0.05

> <Gold.PLP.Chemscore.Internal.Correction>
0.4330

> <Gold.Rescore>
     Score         DG    S(hbond)    S(metal)    S(lipo)     H(rot)  DE(clash)    DE(int)     intcor
     15.38     -16.21       1.69        0.00      75.26       1.46       0.24       0.59       ----

> <Gold.Chemscore.Fitness>
15.3790

> <Gold.Chemscore.DG>
-16.2133

> <Gold.Chemscore.ZeroCoef>
-5.4800

> <Gold.Chemscore.Hbond>
1.6930

> <Gold.Chemscore.Metal>
0.0000

> <Gold.Chemscore.Lipo>
75.2628

> <Gold.Chemscore.Internal_Hbond>
0.0000

> <Gold.Chemscore.DEClash>
0.2446

> <Gold.Chemscore.DEInternal>
0.5897

> <Gold.Chemscore.Rot>
1.4560

> <Gold.Chemscore.Internal.Correction>
   9.000000E+99

> <Gold.Chemscore.Hbonds>
donor molecule, donor type, donor heavy atom, donor atom, acceptor molecule, acceptor atom, score
      L1  H    13    38       P1 10175  0.42
      L1  H    15    35       P1  7948  0.97

> <Gold.Chemscore.Hbond.Weighted>
-5.6548

> <Gold.Chemscore.Metal.Weighted>
-0.0000

> <Gold.Chemscore.Lipo.Weighted>
-8.8058

> <Gold.Chemscore.Internal_Hbond.Weighted>
0.0000

> <Gold.Chemscore.DEClash.Weighted>
0.2446

> <Gold.Chemscore.DEInternal.Weighted>
0.5897

> <Gold.Chemscore.Rot.Weighted>
3.7272

> <Gold.Chemscore.Internal.Correction.Weighted>
   9.000000E+99

> <Gold.Protein.RotatedTorsions>
[ 6907 6896 6895 6894 ] final -125.58 input  -60.11 | X-H torsion
[ 7974 7965 7964 7962 ] final   85.75 input  175.53 | X-H torsion
[ 8008 7997 7996 7995 ] final  133.90 input   59.86 | X-H torsion
[ 10167 10162 10161 10158 ] final  -95.25 input  -65.29 | X-H torsion
[ 10718 10713 10712 10709 ] final  107.57 input   66.30 | X-H torsion
[ 10763 10752 10751 10750 ] final   -2.99 input  -60.55 | X-H torsion
[ 11005 11000 10999 10996 ] final   46.58 input  -57.11 | X-H torsion

> <Gold.Protein.ActiveResidues>
 VAL166  LYS551  ARG553  GLY616  TRP617  ASP618  TYR619  PRO620  LYS621  CYS622 
 ASP623  PHE694  ASN695  SER759  ASP760  ASP761  ALA762  ILE779  LEU786  VAL792 
 PHE793  MET794  SER795  GLU796  ALA797  LYS798  CYS799  TRP800  GLU811  SER814 

> <Gold.Protein.RotatedAtoms>
  150.8882  133.7278  159.2911 H   0  0  0  0  0  0  0  0  0  0  0  0  # atno 6907 bound_to 6896
  151.4837  135.1052  159.9794 H   0  0  0  0  0  0  0  0  0  0  0  0  # atno 6908 bound_to 6896
  152.4804  133.8192  159.7100 H   0  0  0  0  0  0  0  0  0  0  0  0  # atno 6909 bound_to 6896
  145.5814  139.2325  143.2351 H   0  0  0  0  0  0  0  0  0  0  0  0  # atno 7974 bound_to 7965
  156.2995  140.2509  156.3329 H   0  0  0  0  0  0  0  0  0  0  0  0  # atno 8008 bound_to 7997
  154.9127  140.0403  157.1974 H   0  0  0  0  0  0  0  0  0  0  0  0  # atno 8009 bound_to 7997
  154.8389  140.2887  155.5677 H   0  0  0  0  0  0  0  0  0  0  0  0  # atno 8010 bound_to 7997
  140.3061  143.3133  152.0197 H   0  0  0  0  0  0  0  0  0  0  0  0  # atno 10167 bound_to 10162
  157.6623  131.0875  150.6176 H   0  0  0  0  0  0  0  0  0  0  0  0  # atno 10718 bound_to 10713
  153.3654  135.6992  153.6679 H   0  0  0  0  0  0  0  0  0  0  0  0  # atno 10763 bound_to 10752
  153.5351  135.3584  155.2694 H   0  0  0  0  0  0  0  0  0  0  0  0  # atno 10764 bound_to 10752
  154.8674  135.4190  154.2920 H   0  0  0  0  0  0  0  0  0  0  0  0  # atno 10765 bound_to 10752
  140.1356  134.4649  155.8488 H   0  0  0  0  0  0  0  0  0  0  0  0  # atno 11005 bound_to 11000
  146.1714  140.6640  142.9231 LP  0  0  0  0  0  0  0  0  0  0  0  0  # atno 17320 bound_to 7965
  144.7392  140.4895  143.6881 LP  0  0  0  0  0  0  0  0  0  0  0  0  # atno 17321 bound_to 7965
  139.4904  144.6420  151.6858 LP  0  0  0  0  0  0  0  0  0  0  0  0  # atno 17342 bound_to 10162
  140.5609  144.0270  150.6169 LP  0  0  0  0  0  0  0  0  0  0  0  0  # atno 17343 bound_to 10162
  156.6478  130.4476  149.5730 LP  0  0  0  0  0  0  0  0  0  0  0  0  # atno 17370 bound_to 10713
  156.2161  130.6708  151.1320 LP  0  0  0  0  0  0  0  0  0  0  0  0  # atno 17371 bound_to 10713
  141.2178  133.6813  156.7152 LP  0  0  0  0  0  0  0  0  0  0  0  0  # atno 17394 bound_to 11000
  140.2786  134.8335  157.3913 LP  0  0  0  0  0  0  0  0  0  0  0  0  # atno 17395 bound_to 11000

$$$$
