#       Name:                AV-unprocessed.smi:21
#       Creating user name   scv26
#       Creation time:       Thu Mar 26 15:36:12 2020


#       File generated by GOLD software.
#

@<TRIPOS>MOLECULE
AV-unprocessed.smi:21
    71    74     1
SMALL
NO_CHARGES


@<TRIPOS>ATOM
      1 ****        -1.4474  -2.5519  -3.0367 C.3            1 S1                 0.0000
      2 ****        -1.7631  -1.6318  -2.0043 O.3            1 S1                 0.0000
      3 ****        -1.7192  -2.2008  -0.7030 C.3            1 S1                 0.0000
      4 ****        -1.5916  -1.0677   0.3054 C.3            1 S1                 0.0000
      5 ****        -3.0369  -0.6469   0.5892 C.3            1 S1                 0.0000
      6 ****        -3.2309   0.0771   1.9432 C.3            1 S1                 0.0000
      7 ****        -2.6164   1.4055   1.9871 N.pl3          1 S1                 0.0000
      8 ****        -3.2645   2.4920   1.2643 C.3            1 S1                 0.0000
      9 ****        -1.2725   1.4543   2.1721 C.ar           1 S1                 0.0000
     10 ****        -0.7613   0.7974   3.2456 N.ar           1 S1                 0.0000
     11 ****         0.5587   0.7435   3.4408 C.ar           1 S1                 0.0000
     12 ****         1.5338   1.2450   2.6820 N.ar           1 S1                 0.0000
     13 ****         1.0295   1.9028   1.5998 C.ar           1 S1                 0.0000
     14 ****        -0.3478   2.0787   1.2832 C.ar           1 S1                 0.0000
     15 ****        -0.4656   2.8026   0.1012 N.2            1 S1                 0.0000
     16 ****         0.7658   3.0259  -0.2667 C.2            1 S1                 0.0000
     17 ****         1.7264   2.4813   0.5539 N.pl3          1 S1                 0.0000
     18 ****         3.1634   2.5238   0.3545 C.3            1 S1                 0.0000
     19 ****         3.8192   1.1355   0.1189 C.3            1 S1                 0.0000
     20 ****         5.3567   1.2974   0.0924 C.3            1 S1                 0.0000
     21 ****         5.7872   2.0166  -1.0458 O.3            1 S1                 0.0000
     22 ****         3.2767   0.3553  -1.1176 C.3            1 S1                 0.0000
     23 ****         4.0249  -0.9306  -1.4347 C.3            1 S1                 0.0000
     24 ****         3.0378  -1.6704  -2.3262 C.3            1 S1                 0.0000
     25 ****         1.7697  -1.3920  -1.7542 O.3            1 S1                 0.0000
     26 ****         1.8415  -0.1871  -0.9976 C.3            1 S1                 0.0000
     27 ****        -3.7977  -1.9155   0.5322 N.4            1 S1                 1.0000
     28 ****        -5.2248  -1.7590   0.1755 C.3            1 S1                 0.0000
     29 ****        -3.0642  -2.8563  -0.3494 C.3            1 S1                 0.0000
     30 ****        -0.8790  -2.8914  -0.6106 H              1 S1                 0.0000
     31 ****        -3.3759  -0.0101  -0.2299 H              1 S1                 0.0000
     32 ****        -1.5213  -2.0541  -4.0034 H              1 S1                 0.0000
     33 ****        -2.1307  -3.4017  -3.0433 H              1 S1                 0.0000
     34 ****        -0.4278  -2.9249  -2.9311 H              1 S1                 0.0000
     35 ****        -1.1241  -1.4441   1.2162 H              1 S1                 0.0000
     36 ****        -0.9771  -0.2519  -0.0721 H              1 S1                 0.0000
     37 ****        -4.2955   0.2107   2.1351 H              1 S1                 0.0000
     38 ****        -2.8666  -0.5471   2.7599 H              1 S1                 0.0000
     39 ****        -2.8444   3.4573   1.5492 H              1 S1                 0.0000
     40 ****        -4.3299   2.5144   1.4936 H              1 S1                 0.0000
     41 ****        -3.1540   2.3668   0.1872 H              1 S1                 0.0000
     42 ****         0.8803   0.2068   4.3213 H              1 S1                 0.0000
     43 ****         1.0066   3.5651  -1.1716 H              1 S1                 0.0000
     44 ****         3.3724   3.1855  -0.4870 H              1 S1                 0.0000
     45 ****         3.5997   2.9989   1.2340 H              1 S1                 0.0000
     46 ****         3.6075   0.5241   0.9968 H              1 S1                 0.0000
     47 ****         5.6987   1.8220   0.9852 H              1 S1                 0.0000
     48 ****         5.8545   0.3280   0.1042 H              1 S1                 0.0000
     49 ****         5.4075   2.8812  -1.0168 H              1 S1                 0.0000
     50 ****         3.3297   0.9980  -1.9979 H              1 S1                 0.0000
     51 ****         4.9818  -0.7611  -1.9295 H              1 S1                 0.0000
     52 ****         4.2052  -1.5041  -0.5241 H              1 S1                 0.0000
     53 ****         3.0654  -1.2722  -3.3414 H              1 S1                 0.0000
     54 ****         3.2304  -2.7424  -2.3729 H              1 S1                 0.0000
     55 ****         1.5939  -0.4304   0.0358 H              1 S1                 0.0000
     56 ****         1.1026   0.5226  -1.3667 H              1 S1                 0.0000
     57 ****        -5.3363  -1.3307  -0.8215 H              1 S1                 0.0000
     58 ****        -5.7356  -1.1093   0.8860 H              1 S1                 0.0000
     59 ****        -5.7268  -2.7270   0.1897 H              1 S1                 0.0000
     60 ****        -3.6352  -3.1082  -1.2442 H              1 S1                 0.0000
     61 ****        -2.9054  -3.7832   0.2022 H              1 S1                 0.0000
     62 ****        -3.7578  -2.3129   1.4599 H              1 S1                 0.0000
     63 ****        -2.6855  -1.2804  -2.1649 LP             1 S1                 0.0000
     64 ****        -1.1079  -0.8773  -2.0418 LP             1 S1                 0.0000
     65 ****        -1.3777   0.3511   3.8943 LP             1 S1                 0.0000
     66 ****         2.5092   1.1505   2.8812 LP             1 S1                 0.0000
     67 ****        -1.3049   3.0874  -0.3619 LP             1 S1                 0.0000
     68 ****         5.4883   1.5449  -1.8753 LP             1 S1                 0.0000
     69 ****         6.7848   2.0862  -1.0430 LP             1 S1                 0.0000
     70 ****         1.5021  -2.1462  -1.1545 LP             1 S1                 0.0000
     71 ****         1.0918  -1.2881  -2.4819 LP             1 S1                 0.0000
@<TRIPOS>BOND
    1    1    2 1     
    2    1   32 1     
    3    1   33 1     
    4    1   34 1     
    5    2    3 1     
    6    3   30 1     
    7    3   29 1     
    8    3    4 1     
    9    4    5 1     
   10    4   35 1     
   11    4   36 1     
   12    5   31 1     
   13    5    6 1     
   14    5   27 1     
   15    6    7 1     
   16    6   37 1     
   17    6   38 1     
   18    7    8 1     
   19    7    9 1     
   20    8   39 1     
   21    8   40 1     
   22    8   41 1     
   23    9   14 ar    
   24    9   10 ar    
   25   10   11 ar    
   26   11   12 ar    
   27   11   42 1     
   28   12   13 ar    
   29   13   17 1     
   30   13   14 ar    
   31   14   15 1     
   32   15   16 2     
   33   16   17 1     
   34   16   43 1     
   35   17   18 1     
   36   18   19 1     
   37   18   44 1     
   38   18   45 1     
   39   19   20 1     
   40   19   22 1     
   41   19   46 1     
   42   20   21 1     
   43   20   47 1     
   44   20   48 1     
   45   21   49 1     
   46   22   26 1     
   47   22   23 1     
   48   22   50 1     
   49   23   24 1     
   50   23   51 1     
   51   23   52 1     
   52   24   25 1     
   53   24   53 1     
   54   24   54 1     
   55   25   26 1     
   56   26   55 1     
   57   26   56 1     
   58   27   28 1     
   59   27   29 1     
   60   27   62 1     
   61   28   57 1     
   62   28   58 1     
   63   28   59 1     
   64   29   60 1     
   65   29   61 1     
   66    2   63 1     
   67    2   64 1     
   68   10   65 1     
   69   12   66 1     
   70   15   67 1     
   71   21   68 1     
   72   21   69 1     
   73   25   70 1     
   74   25   71 1     
@<TRIPOS>SUBSTRUCTURE
      1 S1             1
@<TRIPOS>SET
LONE_PAIRS      STATIC     ATOMS    <user>   **** ""
9 63 64 65 66 67 68 69 70 71
DONOR_HYDROGENS      STATIC     ATOMS    <user>   **** ""
2 49 62
ATOM$BLUE        STATIC     ATOMS    COLORGROUP SYSTEM
9 63 64 65 66 67 68 69 70 71
ATOM$RED        STATIC     ATOMS    COLORGROUP SYSTEM
2 49 62
