AV-unprocessed.smi:2212|AV-procd|sdf|8951|dock6
  -GOLD-   2272012163D 1   1.00000     0.00000
 Structure written by MMmdl.
 31 32  0  0  0  0  0  0  0  0  1 V2000
  149.1656  145.0030  160.3696 C   0  0  0  0  0  0  0  0  0  0  0  0
  149.7603  143.7341  160.1297 O   0  0  0  0  0  0  0  0  0  0  0  0
  151.0751  143.7547  159.5726 C   0  0  0  0  0  0  0  0  0  0  0  0
  151.6442  142.3401  159.3956 C   0  0  0  0  0  0  0  0  0  0  0  0
  150.9175  141.6168  158.3608 N   0  0  0  0  0  0  0  0  0  0  0  0
  151.4487  140.6548  157.5959 C   0  0  0  0  0  0  0  0  0  0  0  0
  152.6198  140.2844  157.6845 O   0  0  0  0  0  0  0  0  0  0  0  0
  150.5472  140.1574  156.7356 N   0  0  0  0  0  0  0  0  0  0  0  0
  150.7710  139.1322  155.7878 C   0  0  0  0  0  0  0  0  0  0  0  0
  150.5963  137.8435  156.0677 N   0  0  0  0  0  0  0  0  0  0  0  0
  150.9174  137.1882  154.8870 C   0  0  0  0  0  0  0  0  0  0  0  0
  151.2703  138.1302  153.9543 C   0  0  0  0  0  0  0  0  0  0  0  0
  151.1819  139.3766  154.5137 O   0  0  0  0  0  0  0  0  0  0  0  0
  151.0553  144.6781  158.3398 C   0  0  0  0  0  0  0  0  0  0  0  0
  152.3413  145.3282  158.8532 C   0  0  0  0  0  0  0  0  0  0  0  0
  151.9529  144.8290  160.2458 C   0  0  0  0  0  0  0  0  0  0  0  0
  148.1338  144.8587  160.6895 H   0  0  0  0  0  0  0  0  0  0  0  0
  149.1500  145.6229  159.4731 H   0  0  0  0  0  0  0  0  0  0  0  0
  149.6772  145.5464  161.1637 H   0  0  0  0  0  0  0  0  0  0  0  0
  152.6967  142.3894  159.1125 H   0  0  0  0  0  0  0  0  0  0  0  0
  151.6112  141.7799  160.3307 H   0  0  0  0  0  0  0  0  0  0  0  0
  149.9465  141.8606  158.2294 H   0  0  0  0  0  0  0  0  0  0  0  0
  149.6158  140.5450  156.7602 H   0  0  0  0  0  0  0  0  0  0  0  0
  150.8704  136.1124  154.8026 H   0  0  0  0  0  0  0  0  0  0  0  0
  151.5865  138.0829  152.9228 H   0  0  0  0  0  0  0  0  0  0  0  0
  151.1597  144.1694  157.3809 H   0  0  0  0  0  0  0  0  0  0  0  0
  150.2118  145.3710  158.3333 H   0  0  0  0  0  0  0  0  0  0  0  0
  153.2430  144.8507  158.4662 H   0  0  0  0  0  0  0  0  0  0  0  0
  152.3786  146.4129  158.7500 H   0  0  0  0  0  0  0  0  0  0  0  0
  151.3789  145.5696  160.8056 H   0  0  0  0  0  0  0  0  0  0  0  0
  152.7839  144.4384  160.8340 H   0  0  0  0  0  0  0  0  0  0  0  0
  1  2  1  0  0  0  0
  1 17  1  0  0  0  0
  1 18  1  0  0  0  0
  1 19  1  0  0  0  0
  2  3  1  0  0  0  0
  3 16  1  0  0  0  0
  3  4  1  0  0  0  0
  3 14  1  0  0  0  0
  4  5  1  0  0  0  0
  4 20  1  0  0  0  0
  4 21  1  0  0  0  0
  5  6  1  0  0  0  0
  5 22  1  0  0  0  0
  6  7  2  0  0  0  0
  6  8  1  0  0  0  0
  8  9  1  0  0  0  0
  8 23  1  0  0  0  0
  9 13  1  0  0  0  0
  9 10  2  0  0  0  0
 10 11  1  0  0  0  0
 11 12  2  0  0  0  0
 11 24  1  0  0  0  0
 12 13  1  0  0  0  0
 12 25  1  0  0  0  0
 14 15  1  0  0  0  0
 14 26  1  0  0  0  0
 14 27  1  0  0  0  0
 15 16  1  0  0  0  0
 15 28  1  0  0  0  0
 15 29  1  0  0  0  0
 16 30  1  0  0  0  0
 16 31  1  0  0  0  0
M  END
> <s_m_source_file>
AV-unprocessed.smi

> <i_m_source_file_index>
2212

> <i_lp_mmshare_version>
43012

> <i_f3d_flags>
0

> <s_epik_input>
W0NIMl0xW0NIMl1bQ0gyXUMxKE9bQ0gzXSlbQ0gyXVtOSF1DKD1PKVtOSF1jMm5bY0hdW2NIXW8y

> <s_epik_cmdline>
J2VwaWtfcHl0aG9uJywgJy1waCcsICc3LjAnLCAnLXRuJywgJzgnLCAnLW1hJywgJzIwMCcsICctbWV0YWxfYmluZGluZycsICctaW1hZScsICc8aW5maWxlLm1hZT4nLCAnLW9tYWUnLCAnPG91dGZpbGUubWFlPic=

> <r_lp_tautomer_probability>
0.785861

> <r_epik_Ionization_Penalty>
4.58897e-05

> <r_epik_Ionization_Penalty_Charging>
0

> <r_epik_Ionization_Penalty_Neutral>
4.58897e-05

> <r_epik_State_Penalty>
0.0380021

> <r_epik_Charging_Adjusted_Penalty>
0.0380021

> <i_epik_Tot_Q>
0

> <i_epik_Tot_abs_Q>
0

> <r_epik_Metal_State_Penalty>
0.0585611

> <b_epik_Metal_Only>
0

> <s_lp_Force_Field>
OPLS_2005

> <r_lp_Energy>
14.4029

> <b_lp_Chiralities_Consistent>
1

> <s_lp_Variant>
AV-unprocessed.smi:2212-1

> <Gold.Version>
5.8.1

> <Gold.Id.Protein>
6NUR|6NUR_protein|mol2

> <Gold.PLP.Fitness>
36.1687

> <Gold.PLP.PLP>
-29.1309

> <Gold.PLP.part.hbond>
-3.0000

> <Gold.PLP.part.metal>
0.0000

> <Gold.PLP.part.buried>
-5.7380

> <Gold.PLP.part.nonpolar>
-21.5696

> <Gold.PLP.part.repulsive>
0.3892

> <Gold.PLP.ligand.clash>
0.0000

> <Gold.PLP.ligand.torsion>
1.1467

> <Gold.PLP.Chemscore.Hbond>
2.0696

> <Gold.PLP.Chemscore.CHOScore>
0.9526

> <Gold.PLP.Chemscore.Metal>
0.0000

> <Gold.Chemscore.Hbonds>
donor molecule, donor type, donor heavy atom, donor atom, acceptor molecule, acceptor atom, score
      P1  H  6933  6944       L1     2  0.11
      P1  H  7989  7998       L1    13  1.00
      P1  H  7997  8008       L1     7  0.96
      L1  C    12    25       P1  7949  0.77

> <Gold.PLP.Chemscore.Internal.Correction>
0.2646

> <Gold.Rescore>
     Score         DG    S(hbond)    S(metal)    S(lipo)     H(rot)  DE(clash)    DE(int)     intcor
     15.81     -16.94       1.89        0.00      79.97       1.64       0.04       1.10       ----

> <Gold.Chemscore.Fitness>
15.8108

> <Gold.Chemscore.DG>
-16.9439

> <Gold.Chemscore.ZeroCoef>
-5.4800

> <Gold.Chemscore.Hbond>
1.8888

> <Gold.Chemscore.Metal>
0.0000

> <Gold.Chemscore.Lipo>
79.9679

> <Gold.Chemscore.Internal_Hbond>
0.0000

> <Gold.Chemscore.DEClash>
0.0367

> <Gold.Chemscore.DEInternal>
1.0964

> <Gold.Chemscore.Rot>
1.6411

> <Gold.Chemscore.Internal.Correction>
   9.000000E+99

> <Gold.Chemscore.Hbonds>
donor molecule, donor type, donor heavy atom, donor atom, acceptor molecule, acceptor atom, score
      P1  H  6933  6944       L1     2  0.04
      P1  H  7989  7998       L1    13  0.97
      P1  H  7997  8008       L1     7  0.86

> <Gold.Chemscore.Hbond.Weighted>
-6.3087

> <Gold.Chemscore.Metal.Weighted>
-0.0000

> <Gold.Chemscore.Lipo.Weighted>
-9.3562

> <Gold.Chemscore.Internal_Hbond.Weighted>
0.0000

> <Gold.Chemscore.DEClash.Weighted>
0.0367

> <Gold.Chemscore.DEInternal.Weighted>
1.0964

> <Gold.Chemscore.Rot.Weighted>
4.2011

> <Gold.Chemscore.Internal.Correction.Weighted>
   9.000000E+99

> <Gold.Protein.RotatedTorsions>
[ 6907 6896 6895 6894 ] final  144.94 input  -60.11 | X-H torsion
[ 7974 7965 7964 7962 ] final   -9.42 input  175.53 | X-H torsion
[ 8008 7997 7996 7995 ] final  -67.32 input   59.86 | X-H torsion
[ 10167 10162 10161 10158 ] final   32.97 input  -65.29 | X-H torsion
[ 10718 10713 10712 10709 ] final   93.87 input   66.30 | X-H torsion
[ 10763 10752 10751 10750 ] final  140.10 input  -60.55 | X-H torsion
[ 11005 11000 10999 10996 ] final  -59.14 input  -57.11 | X-H torsion

> <Gold.Protein.ActiveResidues>
 VAL166  LYS551  ARG553  GLY616  TRP617  ASP618  TYR619  PRO620  LYS621  CYS622 
 ASP623  PHE694  ASN695  SER759  ASP760  ASP761  ALA762  ILE779  LEU786  VAL792 
 PHE793  MET794  SER795  GLU796  ALA797  LYS798  CYS799  TRP800  GLU811  SER814 

> <Gold.Protein.RotatedAtoms>
  152.1873  133.4748  159.4988 H   0  0  0  0  0  0  0  0  0  0  0  0  # atno 6907 bound_to 6896
  150.6945  134.1758  159.4238 H   0  0  0  0  0  0  0  0  0  0  0  0  # atno 6908 bound_to 6896
  151.9671  135.0095  160.0601 H   0  0  0  0  0  0  0  0  0  0  0  0  # atno 6909 bound_to 6896
  146.2252  140.2613  142.8352 H   0  0  0  0  0  0  0  0  0  0  0  0  # atno 7974 bound_to 7965
  154.4792  140.0895  156.7336 H   0  0  0  0  0  0  0  0  0  0  0  0  # atno 8008 bound_to 7997
  155.4515  140.3457  155.4283 H   0  0  0  0  0  0  0  0  0  0  0  0  # atno 8009 bound_to 7997
  156.1165  140.1462  156.9254 H   0  0  0  0  0  0  0  0  0  0  0  0  # atno 8010 bound_to 7997
  140.4450  144.1132  150.6181 H   0  0  0  0  0  0  0  0  0  0  0  0  # atno 10167 bound_to 10162
  157.6952  131.0493  150.4099 H   0  0  0  0  0  0  0  0  0  0  0  0  # atno 10718 bound_to 10713
  153.9171  135.3004  155.3448 H   0  0  0  0  0  0  0  0  0  0  0  0  # atno 10763 bound_to 10752
  154.7594  135.4941  153.9439 H   0  0  0  0  0  0  0  0  0  0  0  0  # atno 10764 bound_to 10752
  153.1161  135.6771  153.9517 H   0  0  0  0  0  0  0  0  0  0  0  0  # atno 10765 bound_to 10752
  141.1236  133.6615  156.5026 H   0  0  0  0  0  0  0  0  0  0  0  0  # atno 11005 bound_to 11000
  144.9337  140.8003  143.5673 LP  0  0  0  0  0  0  0  0  0  0  0  0  # atno 17320 bound_to 7965
  145.2559  139.2012  143.4917 LP  0  0  0  0  0  0  0  0  0  0  0  0  # atno 17321 bound_to 7965
  140.4274  143.2583  151.9639 LP  0  0  0  0  0  0  0  0  0  0  0  0  # atno 17342 bound_to 10162
  139.4792  144.5775  151.7987 LP  0  0  0  0  0  0  0  0  0  0  0  0  # atno 17343 bound_to 10162
  156.4484  130.4006  149.6651 LP  0  0  0  0  0  0  0  0  0  0  0  0  # atno 17370 bound_to 10713
  156.3810  130.7579  151.2571 LP  0  0  0  0  0  0  0  0  0  0  0  0  # atno 17371 bound_to 10713
  140.4433  134.6995  157.5003 LP  0  0  0  0  0  0  0  0  0  0  0  0  # atno 17394 bound_to 11000
  140.0214  134.6541  155.9234 LP  0  0  0  0  0  0  0  0  0  0  0  0  # atno 17395 bound_to 11000

$$$$
