#       Name:                AV-unprocessed.smi:975
#       Creating user name   scv26
#       Creation time:       Fri Mar 27 02:20:48 2020


#       File generated by GOLD software.
#

@<TRIPOS>MOLECULE
AV-unprocessed.smi:975
    48    49     1
SMALL
NO_CHARGES


@<TRIPOS>ATOM
      1 ****        -4.4556   0.4312  -2.8755 C.3            1 S1                 0.0000
      2 ****        -2.9632   0.1842  -2.9562 C.2            1 S1                 0.0000
      3 ****        -2.0284   1.2902  -2.9593 C.2            1 S1                 0.0000
      4 ****        -0.7134   1.0340  -3.0368 C.2            1 S1                 0.0000
      5 ****        -0.2149  -0.2791  -3.1126 N.am           1 S1                 0.0000
      6 ****         1.2495  -0.4367  -3.1786 C.3            1 S1                 0.0000
      7 ****         1.9407  -0.6351  -1.8181 C.2            1 S1                 0.0000
      8 ****         3.1578  -0.8128  -1.7873 O.2            1 S1                 0.0000
      9 ****         1.1807  -0.5995  -0.7096 N.am           1 S1                 0.0000
     10 ****         1.6496  -0.7601   0.6640 C.3            1 S1                 0.0000
     11 ****         0.5283  -1.4456   1.4782 C.3            1 S1                 0.0000
     12 ****         0.7700  -1.5847   2.9922 C.3            1 S1                 0.0000
     13 ****         0.1710  -0.4566   3.8626 C.3            1 S1                 0.0000
     14 ****         1.0863   0.7600   4.0934 C.3            1 S1                 0.0000
     15 ****         0.9463   1.9273   3.0929 C.3            1 S1                 0.0000
     16 ****         1.0201   1.5799   1.5948 C.3            1 S1                 0.0000
     17 ****         2.1441   0.5949   1.2175 C.3            1 S1                 0.0000
     18 ****        -1.0427  -1.3673  -3.1051 C.2            1 S1                 0.0000
     19 ****        -0.6114  -2.5192  -3.1529 O.2            1 S1                 0.0000
     20 ****        -2.4787  -1.0753  -3.0265 C.2            1 S1                 0.0000
     21 ****        -4.6763   1.4969  -2.8069 H              1 S1                 0.0000
     22 ****        -4.8744  -0.0603  -1.9970 H              1 S1                 0.0000
     23 ****        -4.9536   0.0365  -3.7615 H              1 S1                 0.0000
     24 ****        -2.3805   2.3098  -2.8978 H              1 S1                 0.0000
     25 ****         0.0371   1.8115  -3.0376 H              1 S1                 0.0000
     26 ****         1.5140  -1.2751  -3.8254 H              1 S1                 0.0000
     27 ****         1.6951   0.4363  -3.6579 H              1 S1                 0.0000
     28 ****         0.1900  -0.4454  -0.8289 H              1 S1                 0.0000
     29 ****         2.5039  -1.4399   0.6571 H              1 S1                 0.0000
     30 ****        -0.4356  -0.9663   1.3041 H              1 S1                 0.0000
     31 ****         0.4094  -2.4502   1.0694 H              1 S1                 0.0000
     32 ****         0.2812  -2.5092   3.3025 H              1 S1                 0.0000
     33 ****         1.8279  -1.7375   3.2091 H              1 S1                 0.0000
     34 ****        -0.8073  -0.1457   3.4942 H              1 S1                 0.0000
     35 ****        -0.0212  -0.8915   4.8443 H              1 S1                 0.0000
     36 ****         0.8585   1.1655   5.0800 H              1 S1                 0.0000
     37 ****         2.1239   0.4352   4.1679 H              1 S1                 0.0000
     38 ****         0.0032   2.4428   3.2779 H              1 S1                 0.0000
     39 ****         1.7256   2.6559   3.3194 H              1 S1                 0.0000
     40 ****         0.0508   1.2140   1.2593 H              1 S1                 0.0000
     41 ****         1.1643   2.5068   1.0385 H              1 S1                 0.0000
     42 ****         2.8079   0.4186   2.0620 H              1 S1                 0.0000
     43 ****         2.7901   1.0673   0.4762 H              1 S1                 0.0000
     44 ****        -3.1709  -1.9050  -3.0244 H              1 S1                 0.0000
     45 ****         3.6828  -0.8267  -2.6383 LP             1 S1                 0.0000
     46 ****         3.6221  -0.9433  -0.9113 LP             1 S1                 0.0000
     47 ****         0.3741  -2.6826  -3.1991 LP             1 S1                 0.0000
     48 ****        -1.2465  -3.2916  -3.1456 LP             1 S1                 0.0000
@<TRIPOS>BOND
    1    1    2 1     
    2    1   21 1     
    3    1   22 1     
    4    1   23 1     
    5    2   20 2     
    6    2    3 1     
    7    3    4 2     
    8    3   24 1     
    9    4    5 1     
   10    4   25 1     
   11    5    6 1     
   12    5   18 am    
   13    6    7 1     
   14    6   26 1     
   15    6   27 1     
   16    7    8 2     
   17    7    9 am    
   18    9   10 1     
   19    9   28 1     
   20   10   17 1     
   21   10   11 1     
   22   10   29 1     
   23   11   12 1     
   24   11   30 1     
   25   11   31 1     
   26   12   13 1     
   27   12   32 1     
   28   12   33 1     
   29   13   14 1     
   30   13   34 1     
   31   13   35 1     
   32   14   15 1     
   33   14   36 1     
   34   14   37 1     
   35   15   16 1     
   36   15   38 1     
   37   15   39 1     
   38   16   17 1     
   39   16   40 1     
   40   16   41 1     
   41   17   42 1     
   42   17   43 1     
   43   18   19 2     
   44   18   20 1     
   45   20   44 1     
   46    8   45 1     
   47    8   46 1     
   48   19   47 1     
   49   19   48 1     
@<TRIPOS>SUBSTRUCTURE
      1 S1             1
@<TRIPOS>SET
LONE_PAIRS      STATIC     ATOMS    <user>   **** ""
4 45 46 47 48
DONOR_HYDROGENS      STATIC     ATOMS    <user>   **** ""
1 28
ATOM$BLUE        STATIC     ATOMS    COLORGROUP SYSTEM
4 45 46 47 48
ATOM$RED        STATIC     ATOMS    COLORGROUP SYSTEM
1 28
