#       Name:                AV-unprocessed.smi:1385
#       Creating user name   scv26
#       Creation time:       Fri Mar 27 05:24:58 2020


#       File generated by GOLD software.
#

@<TRIPOS>MOLECULE
AV-unprocessed.smi:1385
    45    46     1
SMALL
NO_CHARGES


@<TRIPOS>ATOM
      1 ****        -6.8188   4.4568   0.9684 C.3            1 S1                 0.0000
      2 ****        -5.9070   3.3670   0.5191 C.2            1 S1                 0.0000
      3 ****        -5.7976   2.9963  -0.7591 N.2            1 S1                 0.0000
      4 ****        -4.8862   1.9640  -0.9276 N.2            1 S1                 0.0000
      5 ****        -4.3126   1.5763   0.2204 C.2            1 S1                 0.0000
      6 ****        -3.4044   0.5879   0.2727 N.pl3          1 S1                -1.0000
      7 ****        -2.0854   0.8829   0.2973 C.2            1 S1                 0.0000
      8 ****        -1.5873   2.0110   0.2923 O.2            1 S1                 0.0000
      9 ****        -1.2935  -0.1986   0.3264 N.am           1 S1                 0.0000
     10 ****         0.1659  -0.1922   0.3485 C.3            1 S1                 0.0000
     11 ****         0.7342   0.0501  -1.0621 C.3            1 S1                 0.0000
     12 ****         2.2676  -0.0531  -1.0704 C.3            1 S1                 0.0000
     13 ****         2.7183  -1.3659  -0.5426 N.4            1 S1                 1.0000
     14 ****         4.1862  -1.5549  -0.6705 C.3            1 S1                 0.0000
     15 ****         4.6012  -3.0296  -0.7033 C.2            1 S1                 0.0000
     16 ****         5.8750  -3.3033  -0.4129 N.am           1 S1                 0.0000
     17 ****         3.7939  -3.9085  -1.0001 O.2            1 S1                 0.0000
     18 ****         2.2172  -1.5994   0.8384 C.3            1 S1                 0.0000
     19 ****         0.6823  -1.5357   0.8871 C.3            1 S1                 0.0000
     20 ****        -4.8855   2.4692   1.6290 S.3            1 S1                 0.0000
     21 ****        -6.3145   5.4199   0.8888 H              1 S1                 0.0000
     22 ****        -7.1125   4.2989   2.0062 H              1 S1                 0.0000
     23 ****        -7.7178   4.4786   0.3518 H              1 S1                 0.0000
     24 ****        -1.7478  -1.1002   0.3303 H              1 S1                 0.0000
     25 ****         0.5098   0.6003   1.0162 H              1 S1                 0.0000
     26 ****         0.3180  -0.6789  -1.7593 H              1 S1                 0.0000
     27 ****         0.4335   1.0325  -1.4282 H              1 S1                 0.0000
     28 ****         2.6270   0.0777  -2.0917 H              1 S1                 0.0000
     29 ****         2.7032   0.7504  -0.4742 H              1 S1                 0.0000
     30 ****         4.5325  -1.1139  -1.6061 H              1 S1                 0.0000
     31 ****         4.7025  -1.0286   0.1342 H              1 S1                 0.0000
     32 ****         6.2041  -4.2580  -0.4162 H              1 S1                 0.0000
     33 ****         6.5090  -2.5500  -0.1866 H              1 S1                 0.0000
     34 ****         2.5445  -2.5750   1.1987 H              1 S1                 0.0000
     35 ****         2.6440  -0.8552   1.5127 H              1 S1                 0.0000
     36 ****         0.3396  -1.6845   1.9119 H              1 S1                 0.0000
     37 ****         0.2678  -2.3568   0.2998 H              1 S1                 0.0000
     38 ****         2.2936  -2.0680  -1.1322 H              1 S1                 0.0000
     39 ****        -6.3126   3.4141  -1.5076 LP             1 S1                 0.0000
     40 ****        -4.6784   1.5514  -1.8145 LP             1 S1                 0.0000
     41 ****        -3.7040  -0.3659   0.2934 LP             1 S1                 0.0000
     42 ****        -2.1773   2.8180   0.2681 LP             1 S1                 0.0000
     43 ****        -0.5933   2.1188   0.3124 LP             1 S1                 0.0000
     44 ****         2.8503  -3.6654  -1.2248 LP             1 S1                 0.0000
     45 ****         4.0811  -4.8662  -1.0168 LP             1 S1                 0.0000
@<TRIPOS>BOND
    1    1    2 1     
    2    1   21 1     
    3    1   22 1     
    4    1   23 1     
    5    2   20 1     
    6    2    3 2     
    7    3    4 1     
    8    4    5 2     
    9    5    6 1     
   10    5   20 1     
   11    6    7 1     
   12    7    8 2     
   13    7    9 am    
   14    9   10 1     
   15    9   24 1     
   16   10   19 1     
   17   10   11 1     
   18   10   25 1     
   19   11   12 1     
   20   11   26 1     
   21   11   27 1     
   22   12   13 1     
   23   12   28 1     
   24   12   29 1     
   25   13   14 1     
   26   13   18 1     
   27   13   38 1     
   28   14   15 1     
   29   14   30 1     
   30   14   31 1     
   31   15   16 am    
   32   15   17 2     
   33   16   32 1     
   34   16   33 1     
   35   18   19 1     
   36   18   34 1     
   37   18   35 1     
   38   19   36 1     
   39   19   37 1     
   40    3   39 1     
   41    4   40 1     
   42    6   41 1     
   43    8   42 1     
   44    8   43 1     
   45   17   44 1     
   46   17   45 1     
@<TRIPOS>SUBSTRUCTURE
      1 S1             1
@<TRIPOS>SET
LONE_PAIRS      STATIC     ATOMS    <user>   **** ""
7 39 40 41 42 43 44 45
DONOR_HYDROGENS      STATIC     ATOMS    <user>   **** ""
4 24 38 32 33
ATOM$BLUE        STATIC     ATOMS    COLORGROUP SYSTEM
7 39 40 41 42 43 44 45
ATOM$RED        STATIC     ATOMS    COLORGROUP SYSTEM
4 24 38 32 33
