AV-unprocessed.smi:2233|AV-procd|sdf|9040|dock2
  -GOLD-   2272012243D 1   1.00000     0.00000
 Structure written by MMmdl.
 43 44  0  0  0  0  0  0  0  0  2 V2000
  153.2921  141.9641  161.0246 C   0  0  0  0  0  0  0  0  0  0  0  0
  152.9436  142.8570  160.2679 C   0  0  0  0  0  0  0  0  0  0  0  0
  152.5165  143.9425  159.3679 C   0  0  0  0  0  0  0  0  0  0  0  0
  151.0102  143.9596  159.0496 C   0  0  0  0  0  0  0  0  0  0  0  0
  150.5381  142.7936  158.1617 C   0  0  0  0  0  0  0  0  0  0  0  0
  151.2414  142.7801  156.7926 C   0  0  0  0  0  0  0  0  0  0  0  0
  150.7824  141.6252  155.8967 C   0  0  0  0  0  0  0  0  0  0  0  0
  151.5808  140.7479  155.5688 O   0  0  0  0  0  0  0  0  0  0  0  0
  149.4886  141.6571  155.5291 N   0  0  0  0  0  0  0  0  0  0  0  0
  148.7576  140.7309  154.7296 C   0  0  0  0  0  0  0  0  0  0  0  0
  149.3684  139.6455  154.0519 C   0  0  0  0  0  0  0  0  0  0  0  0
  148.6243  138.8085  153.2981 N   0  3  0  0  0  0  0  0  0  0  0  0
  147.2922  138.9512  153.1418 C   0  0  0  0  0  0  0  0  0  0  0  0
  146.6245  140.0165  153.7752 C   0  0  0  0  0  0  0  0  0  0  0  0
  147.3595  140.9238  154.5758 C   0  0  0  0  0  0  0  0  0  0  0  0
  146.7190  141.9984  155.2145 N   0  0  0  0  0  0  0  0  0  0  0  0
  145.5362  142.4820  154.5139 C   0  0  0  0  0  0  0  0  0  0  0  0
  144.9992  143.7468  155.2055 C   0  0  0  0  0  0  0  0  0  0  0  0
  144.7444  143.4665  156.5792 O   0  0  0  0  0  0  0  0  0  0  0  0
  145.9235  143.0680  157.2736 C   0  0  0  0  0  0  0  0  0  0  0  0
  146.4871  141.7855  156.6374 C   0  0  0  0  0  0  0  0  0  0  0  0
  153.5933  141.1825  161.6856 H   0  0  0  0  0  0  0  0  0  0  0  0
  152.8177  144.8876  159.8205 H   0  0  0  0  0  0  0  0  0  0  0  0
  153.0872  143.8397  158.4446 H   0  0  0  0  0  0  0  0  0  0  0  0
  150.4602  143.9309  159.9909 H   0  0  0  0  0  0  0  0  0  0  0  0
  150.7473  144.9078  158.5780 H   0  0  0  0  0  0  0  0  0  0  0  0
  150.7188  141.8468  158.6723 H   0  0  0  0  0  0  0  0  0  0  0  0
  149.4590  142.8664  158.0180 H   0  0  0  0  0  0  0  0  0  0  0  0
  151.0604  143.7276  156.2821 H   0  0  0  0  0  0  0  0  0  0  0  0
  152.3203  142.7011  156.9297 H   0  0  0  0  0  0  0  0  0  0  0  0
  148.9372  142.4013  155.9324 H   0  0  0  0  0  0  0  0  0  0  0  0
  150.4226  139.4153  154.0684 H   0  0  0  0  0  0  0  0  0  0  0  0
  146.8052  138.2184  152.5149 H   0  0  0  0  0  0  0  0  0  0  0  0
  145.5586  140.1332  153.6438 H   0  0  0  0  0  0  0  0  0  0  0  0
  145.7841  142.7002  153.4743 H   0  0  0  0  0  0  0  0  0  0  0  0
  144.7656  141.7100  154.5082 H   0  0  0  0  0  0  0  0  0  0  0  0
  145.7095  144.5705  155.1168 H   0  0  0  0  0  0  0  0  0  0  0  0
  144.0734  144.0712  154.7303 H   0  0  0  0  0  0  0  0  0  0  0  0
  146.6616  143.8714  157.2494 H   0  0  0  0  0  0  0  0  0  0  0  0
  145.6777  142.8920  158.3208 H   0  0  0  0  0  0  0  0  0  0  0  0
  145.7843  140.9636  156.7803 H   0  0  0  0  0  0  0  0  0  0  0  0
  147.4199  141.5033  157.1273 H   0  0  0  0  0  0  0  0  0  0  0  0
  149.0918  138.0354  152.8235 H   0  0  0  0  0  0  0  0  0  0  0  0
  1  2  3  0  0  0  0
  1 22  1  0  0  0  0
  2  3  1  0  0  0  0
  3  4  1  0  0  0  0
  3 23  1  0  0  0  0
  3 24  1  0  0  0  0
  4  5  1  0  0  0  0
  4 25  1  0  0  0  0
  4 26  1  0  0  0  0
  5  6  1  0  0  0  0
  5 27  1  0  0  0  0
  5 28  1  0  0  0  0
  6  7  1  0  0  0  0
  6 29  1  0  0  0  0
  6 30  1  0  0  0  0
  7  8  2  0  0  0  0
  7  9  1  0  0  0  0
  9 10  1  0  0  0  0
  9 31  1  0  0  0  0
 10 15  1  0  0  0  0
 10 11  2  0  0  0  0
 11 12  1  0  0  0  0
 11 32  1  0  0  0  0
 12 13  2  0  0  0  0
 12 43  1  0  0  0  0
 13 14  1  0  0  0  0
 13 33  1  0  0  0  0
 14 15  2  0  0  0  0
 14 34  1  0  0  0  0
 15 16  1  0  0  0  0
 16 21  1  0  0  0  0
 16 17  1  0  0  0  0
 17 18  1  0  0  0  0
 17 35  1  0  0  0  0
 17 36  1  0  0  0  0
 18 19  1  0  0  0  0
 18 37  1  0  0  0  0
 18 38  1  0  0  0  0
 19 20  1  0  0  0  0
 20 21  1  0  0  0  0
 20 39  1  0  0  0  0
 20 40  1  0  0  0  0
 21 41  1  0  0  0  0
 21 42  1  0  0  0  0
M  CHG  1  12   1
M  END
> <s_m_source_file>
AV-unprocessed.smi

> <i_m_source_file_index>
2233

> <i_lp_mmshare_version>
43012

> <i_f3d_flags>
0

> <s_epik_input>
W0NIXSNDW0NIMl1bQ0gyXVtDSDJdW0NIMl1DKD1PKVtOSF1jMVtjSF1uW2NIXVtjSF1jMU4yW0NIMl1bQ0gyXU9bQ0gyXVtDSDJdMg==

> <s_epik_cmdline>
J2VwaWtfcHl0aG9uJywgJy1waCcsICc3LjAnLCAnLXRuJywgJzgnLCAnLW1hJywgJzIwMCcsICctbWV0YWxfYmluZGluZycsICctaW1hZScsICc8aW5maWxlLm1hZT4nLCAnLW9tYWUnLCAnPG91dGZpbGUubWFlPic=

> <r_lp_tautomer_probability>
1

> <r_epik_Ionization_Penalty>
0.153155

> <r_epik_Ionization_Penalty_Charging>
0.153154

> <r_epik_Ionization_Penalty_Neutral>
1.2848e-06

> <r_epik_State_Penalty>
0.142445

> <r_epik_Charging_Adjusted_Penalty>
0.295599

> <i_epik_Tot_Q>
1

> <i_epik_Tot_abs_Q>
1

> <r_epik_Metal_State_Penalty>
0.464899

> <b_epik_Metal_Only>
0

> <s_lp_Force_Field>
OPLS_2005

> <r_lp_Energy>
30.3927

> <b_lp_Chiralities_Consistent>
1

> <s_lp_Variant>
AV-unprocessed.smi:2233-1

> <Gold.Version>
5.8.1

> <Gold.Id.Protein>
6NUR|6NUR_protein|mol2

> <Gold.PLP.Fitness>
47.8940

> <Gold.PLP.PLP>
-40.4125

> <Gold.PLP.part.hbond>
-3.7931

> <Gold.PLP.part.metal>
0.0000

> <Gold.PLP.part.buried>
-2.1023

> <Gold.PLP.part.nonpolar>
-33.2175

> <Gold.PLP.part.repulsive>
0.4606

> <Gold.PLP.ligand.clash>
0.0000

> <Gold.PLP.ligand.torsion>
0.6609

> <Gold.PLP.Chemscore.Hbond>
2.8746

> <Gold.PLP.Chemscore.CHOScore>
0.0000

> <Gold.PLP.Chemscore.Metal>
0.0000

> <Gold.Chemscore.Hbonds>
donor molecule, donor type, donor heavy atom, donor atom, acceptor molecule, acceptor atom, score
      L1  H     9    31       P1  8028  0.17
      L1  H    12    43       P1  7948  2.00
      P1  H  7989  7998       L1     8  0.62

> <Gold.PLP.Chemscore.Internal.Correction>
0.1794

> <Gold.Rescore>
     Score         DG    S(hbond)    S(metal)    S(lipo)     H(rot)  DE(clash)    DE(int)     intcor
     15.46     -18.38       1.48        0.00     101.53       1.54       0.29       2.63       ----

> <Gold.Chemscore.Fitness>
15.4621

> <Gold.Chemscore.DG>
-18.3785

> <Gold.Chemscore.ZeroCoef>
-5.4800

> <Gold.Chemscore.Hbond>
1.4841

> <Gold.Chemscore.Metal>
0.0000

> <Gold.Chemscore.Lipo>
101.5283

> <Gold.Chemscore.Internal_Hbond>
0.0000

> <Gold.Chemscore.DEClash>
0.2857

> <Gold.Chemscore.DEInternal>
2.6307

> <Gold.Chemscore.Rot>
1.5380

> <Gold.Chemscore.Internal.Correction>
   9.000000E+99

> <Gold.Chemscore.Hbonds>
donor molecule, donor type, donor heavy atom, donor atom, acceptor molecule, acceptor atom, score
      L1  H     9    31       P1  8028  0.17
      L1  H    12    43       P1  7948  0.88
      P1  H  7989  7998       L1     8  0.27

> <Gold.Chemscore.Hbond.Weighted>
-4.9570

> <Gold.Chemscore.Metal.Weighted>
-0.0000

> <Gold.Chemscore.Lipo.Weighted>
-11.8788

> <Gold.Chemscore.Internal_Hbond.Weighted>
0.0000

> <Gold.Chemscore.DEClash.Weighted>
0.2857

> <Gold.Chemscore.DEInternal.Weighted>
2.6307

> <Gold.Chemscore.Rot.Weighted>
3.9373

> <Gold.Chemscore.Internal.Correction.Weighted>
   9.000000E+99

> <Gold.Protein.RotatedTorsions>
[ 6907 6896 6895 6894 ] final   53.74 input  -60.11 | X-H torsion
[ 7974 7965 7964 7962 ] final  152.48 input  175.53 | X-H torsion
[ 8008 7997 7996 7995 ] final   37.51 input   59.86 | X-H torsion
[ 10167 10162 10161 10158 ] final  173.05 input  -65.29 | X-H torsion
[ 10718 10713 10712 10709 ] final -155.27 input   66.30 | X-H torsion
[ 10763 10752 10751 10750 ] final  -53.17 input  -60.55 | X-H torsion
[ 11005 11000 10999 10996 ] final  -87.90 input  -57.11 | X-H torsion

> <Gold.Protein.ActiveResidues>
 VAL166  LYS551  ARG553  GLY616  TRP617  ASP618  TYR619  PRO620  LYS621  CYS622 
 ASP623  PHE694  ASN695  SER759  ASP760  ASP761  ALA762  ILE779  LEU786  VAL792 
 PHE793  MET794  SER795  GLU796  ALA797  LYS798  CYS799  TRP800  GLU811  SER814 

> <Gold.Protein.RotatedAtoms>
  152.3368  134.7188  160.0274 H   0  0  0  0  0  0  0  0  0  0  0  0  # atno 6907 bound_to 6896
  151.7586  133.3327  159.3419 H   0  0  0  0  0  0  0  0  0  0  0  0  # atno 6908 bound_to 6896
  150.7455  134.6059  159.6105 H   0  0  0  0  0  0  0  0  0  0  0  0  # atno 6909 bound_to 6896
  144.8220  139.6674  143.6096 H   0  0  0  0  0  0  0  0  0  0  0  0  # atno 7974 bound_to 7965
  155.2049  140.3319  155.4337 H   0  0  0  0  0  0  0  0  0  0  0  0  # atno 8008 bound_to 7997
  156.2392  140.1887  156.7084 H   0  0  0  0  0  0  0  0  0  0  0  0  # atno 8009 bound_to 7997
  154.6116  140.0608  156.9487 H   0  0  0  0  0  0  0  0  0  0  0  0  # atno 8010 bound_to 7997
  139.5096  144.3305  152.0116 H   0  0  0  0  0  0  0  0  0  0  0  0  # atno 10167 bound_to 10162
  156.5106  130.8433  151.2645 H   0  0  0  0  0  0  0  0  0  0  0  0  # atno 10718 bound_to 10713
  154.1545  135.6484  153.4971 H   0  0  0  0  0  0  0  0  0  0  0  0  # atno 10763 bound_to 10752
  153.0128  135.5346  154.6774 H   0  0  0  0  0  0  0  0  0  0  0  0  # atno 10764 bound_to 10752
  154.6071  135.2950  155.0445 H   0  0  0  0  0  0  0  0  0  0  0  0  # atno 10765 bound_to 10752
  141.1610  133.7538  156.9374 H   0  0  0  0  0  0  0  0  0  0  0  0  # atno 11005 bound_to 11000
  146.2525  139.6230  142.9417 LP  0  0  0  0  0  0  0  0  0  0  0  0  # atno 17320 bound_to 7965
  145.5085  141.0436  143.2501 LP  0  0  0  0  0  0  0  0  0  0  0  0  # atno 17321 bound_to 7965
  140.2744  144.3928  150.6140 LP  0  0  0  0  0  0  0  0  0  0  0  0  # atno 17342 bound_to 10162
  140.6064  143.2168  151.6972 LP  0  0  0  0  0  0  0  0  0  0  0  0  # atno 17343 bound_to 10162
  157.7451  130.9951  150.2730 LP  0  0  0  0  0  0  0  0  0  0  0  0  # atno 17370 bound_to 10713
  156.3244  130.3790  149.7547 LP  0  0  0  0  0  0  0  0  0  0  0  0  # atno 17371 bound_to 10713
  140.1345  134.9334  157.2383 LP  0  0  0  0  0  0  0  0  0  0  0  0  # atno 17394 bound_to 11000
  140.2912  134.3238  155.7315 LP  0  0  0  0  0  0  0  0  0  0  0  0  # atno 17395 bound_to 11000

$$$$
