AV-unprocessed.smi:65|AV-procd|sdf|614|dock1
  -GOLD-   2262016503D 1   1.00000     0.00000
 Structure written by MMmdl.
 25 26  0  0  0  0  0  0  0  0  1 V2000
  150.0812  143.8209  157.9923 N   0  0  0  0  0  0  0  0  0  0  0  0
  150.7107  142.6112  157.8296 C   0  0  0  0  0  0  0  0  0  0  0  0
  151.2788  142.0825  158.9151 N   0  0  0  0  0  0  0  0  0  0  0  0
  151.9015  140.8946  158.7552 C   0  0  0  0  0  0  0  0  0  0  0  0
  151.9498  140.2432  157.5059 C   0  0  0  0  0  0  0  0  0  0  0  0
  151.3066  140.8928  156.4311 C   0  0  0  0  0  0  0  0  0  0  0  0
  151.3342  140.3107  155.1545 N   0  0  0  0  0  0  0  0  0  0  0  0
  150.0094  140.0241  154.6102 C   0  0  0  0  0  0  0  0  0  0  0  0
  150.0087  138.5441  154.2194 C   0  0  0  0  0  0  0  0  0  0  0  0
  151.4813  138.2742  153.9357 C   0  0  2  0  0  0  0  0  0  0  0  0
  151.8131  136.9064  154.0439 O   0  0  0  0  0  0  0  0  0  0  0  0
  152.1762  139.1278  154.9946 C   0  0  0  0  0  0  0  0  0  0  0  0
  150.6912  142.0884  156.6018 N   0  0  0  0  0  0  0  0  0  0  0  0
  149.6332  144.2732  157.2089 H   0  0  0  0  0  0  0  0  0  0  0  0
  150.0652  144.2709  158.8960 H   0  0  0  0  0  0  0  0  0  0  0  0
  152.3660  140.4615  159.6285 H   0  0  0  0  0  0  0  0  0  0  0  0
  152.4527  139.2953  157.3818 H   0  0  0  0  0  0  0  0  0  0  0  0
  149.2029  140.2500  155.3097 H   0  0  0  0  0  0  0  0  0  0  0  0
  149.8632  140.6480  153.7279 H   0  0  0  0  0  0  0  0  0  0  0  0
  149.6725  137.9451  155.0674 H   0  0  0  0  0  0  0  0  0  0  0  0
  149.3591  138.3262  153.3713 H   0  0  0  0  0  0  0  0  0  0  0  0
  151.7378  138.6361  152.9387 H   0  0  0  0  0  0  0  0  0  0  0  0
  151.5475  136.4690  153.2493 H   0  0  0  0  0  0  0  0  0  0  0  0
  153.1827  139.4069  154.6824 H   0  0  0  0  0  0  0  0  0  0  0  0
  152.2625  138.5713  155.9286 H   0  0  0  0  0  0  0  0  0  0  0  0
  1  2  1  0  0  0  0
  1 14  1  0  0  0  0
  1 15  1  0  0  0  0
  2 13  1  0  0  0  0
  2  3  2  0  0  0  0
  3  4  1  0  0  0  0
  4  5  2  0  0  0  0
  4 16  1  0  0  0  0
  5  6  1  0  0  0  0
  5 17  1  0  0  0  0
  6  7  1  0  0  0  0
  6 13  2  0  0  0  0
  7 12  1  0  0  0  0
  7  8  1  0  0  0  0
  8  9  1  0  0  0  0
  8 18  1  0  0  0  0
  8 19  1  0  0  0  0
  9 10  1  0  0  0  0
  9 20  1  0  0  0  0
  9 21  1  0  0  0  0
 10 11  1  0  0  0  0
 10 12  1  0  0  0  0
 10 22  1  0  0  0  0
 11 23  1  0  0  0  0
 12 24  1  0  0  0  0
 12 25  1  0  0  0  0
M  END
> <s_m_source_file>
AV-unprocessed.smi

> <i_m_source_file_index>
65

> <i_lp_mmshare_version>
43012

> <i_f3d_flags>
0

> <s_epik_input>
W05IMl1jMW5bY0hdW2NIXWMobjEpTjJbQ0gyXVtDSDJdW0NAQEhdKFtPSF0pW0NIMl0y

> <s_epik_cmdline>
J2VwaWtfcHl0aG9uJywgJy1waCcsICc3LjAnLCAnLXRuJywgJzgnLCAnLW1hJywgJzIwMCcsICctbWV0YWxfYmluZGluZycsICctaW1hZScsICc8aW5maWxlLm1hZT4nLCAnLW9tYWUnLCAnPG91dGZpbGUubWFlPic=

> <r_lp_tautomer_probability>
1

> <r_epik_Ionization_Penalty>
0.99295

> <r_epik_Ionization_Penalty_Charging>
0

> <r_epik_Ionization_Penalty_Neutral>
0.99295

> <r_epik_State_Penalty>
0.750885

> <r_epik_Charging_Adjusted_Penalty>
0.750885

> <i_epik_Tot_Q>
0

> <i_epik_Tot_abs_Q>
0

> <r_epik_Metal_State_Penalty>
0.338511

> <b_epik_Metal_Only>
0

> <s_lp_Force_Field>
OPLS_2005

> <r_lp_Energy>
21.5088

> <b_lp_Chiralities_Consistent>
1

> <s_lp_Variant>
AV-unprocessed.smi:65-4

> <Gold.Version>
5.8.1

> <Gold.Id.Protein>
6NUR|6NUR_protein|mol2

> <Gold.PLP.Fitness>
36.0004

> <Gold.PLP.PLP>
-26.0092

> <Gold.PLP.part.hbond>
-4.5728

> <Gold.PLP.part.metal>
0.0000

> <Gold.PLP.part.buried>
-5.5901

> <Gold.PLP.part.nonpolar>
-17.0544

> <Gold.PLP.part.repulsive>
0.1731

> <Gold.PLP.ligand.clash>
0.0000

> <Gold.PLP.ligand.torsion>
0.0616

> <Gold.PLP.Chemscore.Hbond>
3.3495

> <Gold.PLP.Chemscore.CHOScore>
0.0000

> <Gold.PLP.Chemscore.Metal>
0.0000

> <Gold.Chemscore.Hbonds>
donor molecule, donor type, donor heavy atom, donor atom, acceptor molecule, acceptor atom, score
      L1  H     1    14       P1  8028  1.00
      L1  H    11    23       P1  7949  1.00
      P1  H  7989  7998       L1     7  0.10
      P1  H 10752 10765       L1    11  0.60

> <Gold.PLP.Chemscore.Internal.Correction>
0.0659

> <Gold.Rescore>
     Score         DG    S(hbond)    S(metal)    S(lipo)     H(rot)  DE(clash)    DE(int)     intcor
     12.19     -12.33       1.73        0.00      43.05       1.55       0.03       0.11       ----

> <Gold.Chemscore.Fitness>
12.1901

> <Gold.Chemscore.DG>
-12.3293

> <Gold.Chemscore.ZeroCoef>
-5.4800

> <Gold.Chemscore.Hbond>
1.7304

> <Gold.Chemscore.Metal>
0.0000

> <Gold.Chemscore.Lipo>
43.0503

> <Gold.Chemscore.Internal_Hbond>
0.0000

> <Gold.Chemscore.DEClash>
0.0269

> <Gold.Chemscore.DEInternal>
0.1123

> <Gold.Chemscore.Rot>
1.5496

> <Gold.Chemscore.Internal.Correction>
   9.000000E+99

> <Gold.Chemscore.Hbonds>
donor molecule, donor type, donor heavy atom, donor atom, acceptor molecule, acceptor atom, score
      L1  H     1    14       P1  8028  0.35
      L1  H    11    23       P1  7949  0.93
      P1  H 10752 10765       L1    11  0.07

> <Gold.Chemscore.Hbond.Weighted>
-5.7794

> <Gold.Chemscore.Metal.Weighted>
-0.0000

> <Gold.Chemscore.Lipo.Weighted>
-5.0369

> <Gold.Chemscore.Internal_Hbond.Weighted>
0.0000

> <Gold.Chemscore.DEClash.Weighted>
0.0269

> <Gold.Chemscore.DEInternal.Weighted>
0.1123

> <Gold.Chemscore.Rot.Weighted>
3.9670

> <Gold.Chemscore.Internal.Correction.Weighted>
   9.000000E+99

> <Gold.Protein.RotatedTorsions>
[ 6907 6896 6895 6894 ] final   31.97 input  -60.11 | X-H torsion
[ 7974 7965 7964 7962 ] final  -52.11 input  175.53 | X-H torsion
[ 8008 7997 7996 7995 ] final  -96.33 input   59.86 | X-H torsion
[ 10167 10162 10161 10158 ] final  142.69 input  -65.29 | X-H torsion
[ 10718 10713 10712 10709 ] final   48.76 input   66.30 | X-H torsion
[ 10763 10752 10751 10750 ] final -178.65 input  -60.55 | X-H torsion
[ 11005 11000 10999 10996 ] final  -45.64 input  -57.11 | X-H torsion

> <Gold.Protein.ActiveResidues>
 VAL166  LYS551  ARG553  GLY616  TRP617  ASP618  TYR619  PRO620  LYS621  CYS622 
 ASP623  PHE694  ASN695  SER759  ASP760  ASP761  ALA762  ILE779  LEU786  VAL792 
 PHE793  MET794  SER795  GLU796  ALA797  LYS798  CYS799  TRP800  GLU811  SER814 

> <Gold.Protein.RotatedAtoms>
  152.0679  134.9553  160.0574 H   0  0  0  0  0  0  0  0  0  0  0  0  # atno 6907 bound_to 6896
  152.0890  133.4186  159.4543 H   0  0  0  0  0  0  0  0  0  0  0  0  # atno 6908 bound_to 6896
  150.6836  134.2813  159.4672 H   0  0  0  0  0  0  0  0  0  0  0  0  # atno 6909 bound_to 6896
  145.9116  140.7910  142.9692 H   0  0  0  0  0  0  0  0  0  0  0  0  # atno 7974 bound_to 7965
  154.7731  140.0472  157.1067 H   0  0  0  0  0  0  0  0  0  0  0  0  # atno 8008 bound_to 7997
  154.9796  140.3100  155.4932 H   0  0  0  0  0  0  0  0  0  0  0  0  # atno 8009 bound_to 7997
  156.2924  140.2238  156.4895 H   0  0  0  0  0  0  0  0  0  0  0  0  # atno 8010 bound_to 7997
  139.4988  144.6090  151.6314 H   0  0  0  0  0  0  0  0  0  0  0  0  # atno 10167 bound_to 10162
  157.4719  130.8261  149.7997 H   0  0  0  0  0  0  0  0  0  0  0  0  # atno 10718 bound_to 10713
  154.5450  135.2809  155.1061 H   0  0  0  0  0  0  0  0  0  0  0  0  # atno 10763 bound_to 10752
  154.2529  135.6336  153.5250 H   0  0  0  0  0  0  0  0  0  0  0  0  # atno 10764 bound_to 10752
  152.9988  135.5587  154.6000 H   0  0  0  0  0  0  0  0  0  0  0  0  # atno 10765 bound_to 10752
  141.0528  133.6736  156.3042 H   0  0  0  0  0  0  0  0  0  0  0  0  # atno 11005 bound_to 11000
  144.6744  140.1834  143.7403 LP  0  0  0  0  0  0  0  0  0  0  0  0  # atno 17320 bound_to 7965
  145.8664  139.2249  143.1686 LP  0  0  0  0  0  0  0  0  0  0  0  0  # atno 17321 bound_to 7965
  140.5760  144.0028  150.6242 LP  0  0  0  0  0  0  0  0  0  0  0  0  # atno 17342 bound_to 10162
  140.3162  143.3166  152.0830 LP  0  0  0  0  0  0  0  0  0  0  0  0  # atno 17343 bound_to 10162
  156.0078  130.3847  150.2371 LP  0  0  0  0  0  0  0  0  0  0  0  0  # atno 17370 bound_to 10713
  157.0554  131.0074  151.3240 LP  0  0  0  0  0  0  0  0  0  0  0  0  # atno 17371 bound_to 10713
  140.6022  134.5543  157.5519 LP  0  0  0  0  0  0  0  0  0  0  0  0  # atno 17394 bound_to 11000
  139.9365  134.7866  156.0790 LP  0  0  0  0  0  0  0  0  0  0  0  0  # atno 17395 bound_to 11000

$$$$
