AV-unprocessed.smi:281|AV-procd|sdf|2115|dock4
  -GOLD-   2262021413D 1   1.00000     0.00000
 Structure written by MMmdl.
 55 59  0  0  0  0  0  0  0  0  1 V2000
  151.8816  139.8816  157.7225 C   0  0  0  0  0  0  0  0  0  0  0  0
  151.2235  141.0636  158.4407 C   0  0  2  0  0  0  0  0  0  0  0  0
  149.7803  141.2973  157.9702 C   0  0  0  0  0  0  0  0  0  0  0  0
  149.2389  142.4792  158.6269 N   0  0  0  0  0  0  0  0  0  0  0  0
  147.8891  142.6068  158.5644 C   0  0  0  0  0  0  0  0  0  0  0  0
  147.1808  142.8977  159.6886 N   0  0  0  0  0  0  0  0  0  0  0  0
  145.8523  143.0301  159.6353 C   0  0  0  0  0  0  0  0  0  0  0  0
  145.0442  142.9133  158.5803 N   0  0  0  0  0  0  0  0  0  0  0  0
  145.7465  142.6161  157.4496 C   0  0  0  0  0  0  0  0  0  0  0  0
  147.1565  142.4433  157.3544 C   0  0  0  0  0  0  0  0  0  0  0  0
  147.5053  142.1261  156.0467 N   0  0  0  0  0  0  0  0  0  0  0  0
  146.3689  142.1213  155.4052 C   0  0  0  0  0  0  0  0  0  0  0  0
  145.2617  142.4164  156.1684 N   0  0  0  0  0  0  0  0  0  0  0  0
  143.8793  142.4810  155.7175 C   0  0  0  0  0  0  0  0  0  0  0  0
  143.4319  143.8971  155.2828 C   0  0  2  0  0  0  0  0  0  0  0  0
  142.1867  143.8074  154.6118 O   0  0  0  0  0  0  0  0  0  0  0  0
  144.4304  144.5696  154.3483 C   0  0  0  0  0  0  0  0  0  0  0  0
  144.2323  146.0488  154.6502 C   0  0  0  0  0  0  0  0  0  0  0  0
  144.0536  146.0613  156.0560 O   0  0  0  0  0  0  0  0  0  0  0  0
  143.2950  144.9160  156.4339 C   0  0  0  0  0  0  0  0  0  0  0  0
  150.0547  143.6697  158.4098 C   0  0  0  0  0  0  0  0  0  0  0  0
  151.5289  143.4218  158.8172 C   0  0  1  0  0  0  0  0  0  0  0  0
  152.4022  144.5862  158.3778 C   0  0  0  0  0  0  0  0  0  0  0  0
  152.2060  145.5997  159.5003 C   0  0  0  0  0  0  0  0  0  0  0  0
  151.9411  144.8341  160.6715 O   0  0  0  0  0  0  0  0  0  0  0  0
  151.7512  143.4574  160.3470 C   0  0  2  0  0  0  0  0  0  0  0  0
  153.0181  142.7305  160.8390 C   0  0  0  0  0  0  0  0  0  0  0  0
  152.0062  142.2307  158.1829 O   0  0  0  0  0  0  0  0  0  0  0  0
  151.3299  138.9580  157.8997 H   0  0  0  0  0  0  0  0  0  0  0  0
  152.9022  139.7316  158.0755 H   0  0  0  0  0  0  0  0  0  0  0  0
  151.9222  140.0473  156.6456 H   0  0  0  0  0  0  0  0  0  0  0  0
  151.2121  140.8516  159.5098 H   0  0  0  0  0  0  0  0  0  0  0  0
  149.7552  141.4491  156.8901 H   0  0  0  0  0  0  0  0  0  0  0  0
  149.1804  140.4124  158.1790 H   0  0  0  0  0  0  0  0  0  0  0  0
  145.3676  143.2631  160.5718 H   0  0  0  0  0  0  0  0  0  0  0  0
  146.3094  141.8993  154.3497 H   0  0  0  0  0  0  0  0  0  0  0  0
  143.7596  141.7788  154.8913 H   0  0  0  0  0  0  0  0  0  0  0  0
  143.2397  142.1156  156.5223 H   0  0  0  0  0  0  0  0  0  0  0  0
  142.2978  143.2687  153.8436 H   0  0  0  0  0  0  0  0  0  0  0  0
  145.4492  144.2866  154.6162 H   0  0  0  0  0  0  0  0  0  0  0  0
  144.2842  144.3221  153.2958 H   0  0  0  0  0  0  0  0  0  0  0  0
  145.0817  146.6609  154.3465 H   0  0  0  0  0  0  0  0  0  0  0  0
  143.3355  146.4331  154.1619 H   0  0  0  0  0  0  0  0  0  0  0  0
  142.2566  145.1978  156.6153 H   0  0  0  0  0  0  0  0  0  0  0  0
  143.6999  144.5400  157.3728 H   0  0  0  0  0  0  0  0  0  0  0  0
  150.0038  143.9340  157.3523 H   0  0  0  0  0  0  0  0  0  0  0  0
  149.6451  144.5108  158.9708 H   0  0  0  0  0  0  0  0  0  0  0  0
  153.4485  144.2804  158.3401 H   0  0  0  0  0  0  0  0  0  0  0  0
  152.1426  144.9831  157.3959 H   0  0  0  0  0  0  0  0  0  0  0  0
  153.0760  146.2429  159.6345 H   0  0  0  0  0  0  0  0  0  0  0  0
  151.3442  146.2365  159.2979 H   0  0  0  0  0  0  0  0  0  0  0  0
  150.8862  143.0657  160.8834 H   0  0  0  0  0  0  0  0  0  0  0  0
  152.9747  141.6579  160.6561 H   0  0  0  0  0  0  0  0  0  0  0  0
  153.1440  142.8677  161.9130 H   0  0  0  0  0  0  0  0  0  0  0  0
  153.9174  143.1108  160.3547 H   0  0  0  0  0  0  0  0  0  0  0  0
  1  2  1  0  0  0  0
  1 29  1  0  0  0  0
  1 30  1  0  0  0  0
  1 31  1  0  0  0  0
  2 28  1  0  0  0  0
  2  3  1  0  0  0  0
  2 32  1  0  0  0  0
  3  4  1  0  0  0  0
  3 33  1  0  0  0  0
  3 34  1  0  0  0  0
  4  5  1  0  0  0  0
  4 21  1  0  0  0  0
  5 10  1  0  0  0  0
  5  6  2  0  0  0  0
  6  7  1  0  0  0  0
  7  8  2  0  0  0  0
  7 35  1  0  0  0  0
  8  9  1  0  0  0  0
  9 13  1  0  0  0  0
  9 10  2  0  0  0  0
 10 11  1  0  0  0  0
 11 12  2  0  0  0  0
 12 13  1  0  0  0  0
 12 36  1  0  0  0  0
 13 14  1  0  0  0  0
 14 15  1  0  0  0  0
 14 37  1  0  0  0  0
 14 38  1  0  0  0  0
 15 20  1  0  0  0  0
 15 16  1  0  0  0  0
 15 17  1  0  0  0  0
 16 39  1  0  0  0  0
 17 18  1  0  0  0  0
 17 40  1  0  0  0  0
 17 41  1  0  0  0  0
 18 19  1  0  0  0  0
 18 42  1  0  0  0  0
 18 43  1  0  0  0  0
 19 20  1  0  0  0  0
 20 44  1  0  0  0  0
 20 45  1  0  0  0  0
 21 22  1  0  0  0  0
 21 46  1  0  0  0  0
 21 47  1  0  0  0  0
 22 26  1  0  0  0  0
 22 23  1  0  0  0  0
 22 28  1  0  0  0  0
 23 24  1  0  0  0  0
 23 48  1  0  0  0  0
 23 49  1  0  0  0  0
 24 25  1  0  0  0  0
 24 50  1  0  0  0  0
 24 51  1  0  0  0  0
 25 26  1  0  0  0  0
 26 27  1  0  0  0  0
 26 52  1  0  0  0  0
 27 53  1  0  0  0  0
 27 54  1  0  0  0  0
 27 55  1  0  0  0  0
M  END
> <s_m_source_file>
AV-unprocessed.smi

> <i_m_source_file_index>
281

> <i_lp_mmshare_version>
43012

> <i_f3d_flags>
0

> <s_epik_input>
W0NIM11bQ0BASF0xT1tDSDJdW0NIMl1bQ0BAXTEyW0NIMl1OKFtDSDJdW0NASF0oTzIpW0NIM10pYyhuW2NIXW4zKWMoYzM0KW5bY0hdbjRbQ0gyXVtDQEBdNShbT0hdKVtDSDJdW0NIMl1PW0NIMl01

> <s_epik_cmdline>
J2VwaWtfcHl0aG9uJywgJy1waCcsICc3LjAnLCAnLXRuJywgJzgnLCAnLW1hJywgJzIwMCcsICctbWV0YWxfYmluZGluZycsICctaW1hZScsICc8aW5maWxlLm1hZT4nLCAnLW9tYWUnLCAnPG91dGZpbGUubWFlPic=

> <r_lp_tautomer_probability>
1

> <r_epik_Ionization_Penalty>
0.00571331

> <r_epik_Ionization_Penalty_Charging>
0

> <r_epik_Ionization_Penalty_Neutral>
0.00571331

> <r_epik_State_Penalty>
0.00399586

> <r_epik_Charging_Adjusted_Penalty>
0.00399586

> <i_epik_Tot_Q>
0

> <i_epik_Tot_abs_Q>
0

> <r_epik_Metal_State_Penalty>
-0

> <b_epik_Metal_Only>
0

> <s_lp_Force_Field>
OPLS_2005

> <r_lp_Energy>
55.4075

> <b_lp_Chiralities_Consistent>
1

> <s_lp_Variant>
AV-unprocessed.smi:281-15

> <Gold.Version>
5.8.1

> <Gold.Id.Protein>
6NUR|6NUR_protein|mol2

> <Gold.PLP.Fitness>
44.1753

> <Gold.PLP.PLP>
-40.8961

> <Gold.PLP.part.hbond>
-3.3321

> <Gold.PLP.part.metal>
0.0000

> <Gold.PLP.part.buried>
-6.6618

> <Gold.PLP.part.nonpolar>
-31.5134

> <Gold.PLP.part.repulsive>
0.8776

> <Gold.PLP.ligand.clash>
0.0000

> <Gold.PLP.ligand.torsion>
0.9812

> <Gold.PLP.Chemscore.Hbond>
1.6477

> <Gold.PLP.Chemscore.CHOScore>
0.0000

> <Gold.PLP.Chemscore.Metal>
0.0000

> <Gold.Chemscore.Hbonds>
donor molecule, donor type, donor heavy atom, donor atom, acceptor molecule, acceptor atom, score
      L1  H    16    39       P1 10174  1.00
      P1  H  6933  6944       L1     6  0.36
      P1  H  6934  6946       L1     6  0.14

> <Gold.PLP.Chemscore.Internal.Correction>
0.2987

> <Gold.Rescore>
     Score         DG    S(hbond)    S(metal)    S(lipo)     H(rot)  DE(clash)    DE(int)     intcor
     15.75     -16.89       1.31        0.00     105.98       2.09       0.15       1.00       ----

> <Gold.Chemscore.Fitness>
15.7475

> <Gold.Chemscore.DG>
-16.8949

> <Gold.Chemscore.ZeroCoef>
-5.4800

> <Gold.Chemscore.Hbond>
1.3093

> <Gold.Chemscore.Metal>
0.0000

> <Gold.Chemscore.Lipo>
105.9761

> <Gold.Chemscore.Internal_Hbond>
0.0000

> <Gold.Chemscore.DEClash>
0.1505

> <Gold.Chemscore.DEInternal>
0.9969

> <Gold.Chemscore.Rot>
2.0927

> <Gold.Chemscore.Internal.Correction>
   9.000000E+99

> <Gold.Chemscore.Hbonds>
donor molecule, donor type, donor heavy atom, donor atom, acceptor molecule, acceptor atom, score
      L1  H    16    39       P1 10174  1.00
      P1  H  6933  6944       L1     6  0.20

> <Gold.Chemscore.Hbond.Weighted>
-4.3731

> <Gold.Chemscore.Metal.Weighted>
-0.0000

> <Gold.Chemscore.Lipo.Weighted>
-12.3992

> <Gold.Chemscore.Internal_Hbond.Weighted>
0.0000

> <Gold.Chemscore.DEClash.Weighted>
0.1505

> <Gold.Chemscore.DEInternal.Weighted>
0.9969

> <Gold.Chemscore.Rot.Weighted>
5.3573

> <Gold.Chemscore.Internal.Correction.Weighted>
   9.000000E+99

> <Gold.Protein.RotatedTorsions>
[ 6907 6896 6895 6894 ] final   27.14 input  -60.11 | X-H torsion
[ 7974 7965 7964 7962 ] final  -20.63 input  175.53 | X-H torsion
[ 8008 7997 7996 7995 ] final -135.03 input   59.86 | X-H torsion
[ 10167 10162 10161 10158 ] final  105.38 input  -65.29 | X-H torsion
[ 10718 10713 10712 10709 ] final   80.16 input   66.30 | X-H torsion
[ 10763 10752 10751 10750 ] final   93.29 input  -60.55 | X-H torsion
[ 11005 11000 10999 10996 ] final  -21.78 input  -57.11 | X-H torsion

> <Gold.Protein.ActiveResidues>
 VAL166  LYS551  ARG553  GLY616  TRP617  ASP618  TYR619  PRO620  LYS621  CYS622 
 ASP623  PHE694  ASN695  SER759  ASP760  ASP761  ALA762  ILE779  LEU786  VAL792 
 PHE793  MET794  SER795  GLU796  ALA797  LYS798  CYS799  TRP800  GLU811  SER814 

> <Gold.Protein.RotatedAtoms>
  151.9978  134.9945  160.0563 H   0  0  0  0  0  0  0  0  0  0  0  0  # atno 6907 bound_to 6896
  152.1548  133.4539  159.4839 H   0  0  0  0  0  0  0  0  0  0  0  0  # atno 6908 bound_to 6896
  150.6880  134.2062  159.4384 H   0  0  0  0  0  0  0  0  0  0  0  0  # atno 6909 bound_to 6896
  146.1778  140.4228  142.8507 H   0  0  0  0  0  0  0  0  0  0  0  0  # atno 7974 bound_to 7965
  155.3719  140.0489  157.3045 H   0  0  0  0  0  0  0  0  0  0  0  0  # atno 8008 bound_to 7997
  154.5126  140.2197  155.9090 H   0  0  0  0  0  0  0  0  0  0  0  0  # atno 8009 bound_to 7997
  156.1600  140.3118  155.8796 H   0  0  0  0  0  0  0  0  0  0  0  0  # atno 8010 bound_to 7997
  139.7097  144.7080  151.1047 H   0  0  0  0  0  0  0  0  0  0  0  0  # atno 10167 bound_to 10162
  157.6798  130.9947  150.2039 H   0  0  0  0  0  0  0  0  0  0  0  0  # atno 10718 bound_to 10713
  153.2287  135.4330  155.0571 H   0  0  0  0  0  0  0  0  0  0  0  0  # atno 10763 bound_to 10752
  154.8286  135.3374  154.6820 H   0  0  0  0  0  0  0  0  0  0  0  0  # atno 10764 bound_to 10752
  153.7248  135.7015  153.5060 H   0  0  0  0  0  0  0  0  0  0  0  0  # atno 10765 bound_to 10752
  140.8594  133.7799  156.0057 H   0  0  0  0  0  0  0  0  0  0  0  0  # atno 11005 bound_to 11000
  144.8264  140.6635  143.6319 LP  0  0  0  0  0  0  0  0  0  0  0  0  # atno 17320 bound_to 7965
  145.4163  139.1571  143.4098 LP  0  0  0  0  0  0  0  0  0  0  0  0  # atno 17321 bound_to 7965
  140.7730  143.5310  150.9423 LP  0  0  0  0  0  0  0  0  0  0  0  0  # atno 17342 bound_to 10162
  139.8994  143.6854  152.3133 LP  0  0  0  0  0  0  0  0  0  0  0  0  # atno 17343 bound_to 10162
  156.2724  130.3723  149.8018 LP  0  0  0  0  0  0  0  0  0  0  0  0  # atno 17370 bound_to 10713
  156.5731  130.8433  151.3362 LP  0  0  0  0  0  0  0  0  0  0  0  0  # atno 17371 bound_to 10713
  140.8700  134.2738  157.5195 LP  0  0  0  0  0  0  0  0  0  0  0  0  # atno 17394 bound_to 11000
  139.8706  134.9562  156.4230 LP  0  0  0  0  0  0  0  0  0  0  0  0  # atno 17395 bound_to 11000

$$$$
