AV-unprocessed.smi:2129|AV-procd|sdf|8684|dock8
  -GOLD-   2272011433D 1   1.00000     0.00000
 Structure written by MMmdl.
 33 33  0  0  0  0  0  0  0  0  2 V2000
  152.2544  143.9372  161.2124 C   0  0  0  0  0  0  0  0  0  0  0  0
  151.7106  143.1929  159.9798 C   0  0  0  0  0  0  0  0  0  0  0  0
  151.4560  144.0667  158.7202 C   0  0  0  0  0  0  0  0  0  0  0  0
  150.6374  145.3182  159.1072 C   0  0  0  0  0  0  0  0  0  0  0  0
  152.7958  144.5388  158.1222 C   0  0  0  0  0  0  0  0  0  0  0  0
  150.7601  143.3130  157.6691 N   0  0  0  0  0  0  0  0  0  0  0  0
  150.9504  142.0369  157.2900 C   0  0  0  0  0  0  0  0  0  0  0  0
  151.7558  141.2741  157.8246 O   0  0  0  0  0  0  0  0  0  0  0  0
  150.0715  141.5459  156.1326 C   0  0  0  0  0  0  0  0  0  0  0  0
  150.2721  140.1182  155.8379 N   0  0  0  0  0  0  0  0  0  0  0  0
  151.5805  139.6820  155.5644 C   0  0  0  0  0  0  0  0  0  0  0  0
  151.8553  138.3946  155.2807 C   0  0  0  0  0  0  0  0  0  0  0  0
  150.7524  137.4415  155.2606 C   0  0  0  0  0  0  0  0  0  0  0  0
  150.9852  136.2611  155.0072 O   0  0  0  0  0  0  0  0  0  0  0  0
  149.5000  137.9142  155.5284 N   0  5  0  0  0  0  0  0  0  0  0  0
  149.2353  139.2267  155.8145 C   0  0  0  0  0  0  0  0  0  0  0  0
  148.0972  139.6323  156.0536 O   0  0  0  0  0  0  0  0  0  0  0  0
  152.4105  143.2428  162.0378 H   0  0  0  0  0  0  0  0  0  0  0  0
  151.5630  144.7038  161.5607 H   0  0  0  0  0  0  0  0  0  0  0  0
  153.2127  144.4149  161.0079 H   0  0  0  0  0  0  0  0  0  0  0  0
  152.4073  142.3904  159.7356 H   0  0  0  0  0  0  0  0  0  0  0  0
  150.7841  142.6896  160.2591 H   0  0  0  0  0  0  0  0  0  0  0  0
  151.1853  145.9420  159.8145 H   0  0  0  0  0  0  0  0  0  0  0  0
  149.6894  145.0603  159.5792 H   0  0  0  0  0  0  0  0  0  0  0  0
  150.4129  145.9332  158.2349 H   0  0  0  0  0  0  0  0  0  0  0  0
  153.3909  145.0799  158.8585 H   0  0  0  0  0  0  0  0  0  0  0  0
  152.6375  145.2080  157.2756 H   0  0  0  0  0  0  0  0  0  0  0  0
  153.3981  143.7047  157.7616 H   0  0  0  0  0  0  0  0  0  0  0  0
  150.0681  143.8332  157.1498 H   0  0  0  0  0  0  0  0  0  0  0  0
  149.0305  141.7421  156.3914 H   0  0  0  0  0  0  0  0  0  0  0  0
  150.2617  142.1411  155.2373 H   0  0  0  0  0  0  0  0  0  0  0  0
  152.3379  140.4515  155.5932 H   0  0  0  0  0  0  0  0  0  0  0  0
  152.8656  138.0759  155.0706 H   0  0  0  0  0  0  0  0  0  0  0  0
  1  2  1  0  0  0  0
  1 18  1  0  0  0  0
  1 19  1  0  0  0  0
  1 20  1  0  0  0  0
  2  3  1  0  0  0  0
  2 21  1  0  0  0  0
  2 22  1  0  0  0  0
  3  4  1  0  0  0  0
  3  5  1  0  0  0  0
  3  6  1  0  0  0  0
  4 23  1  0  0  0  0
  4 24  1  0  0  0  0
  4 25  1  0  0  0  0
  5 26  1  0  0  0  0
  5 27  1  0  0  0  0
  5 28  1  0  0  0  0
  6  7  1  0  0  0  0
  6 29  1  0  0  0  0
  7  8  2  0  0  0  0
  7  9  1  0  0  0  0
  9 10  1  0  0  0  0
  9 30  1  0  0  0  0
  9 31  1  0  0  0  0
 10 16  1  0  0  0  0
 10 11  1  0  0  0  0
 11 12  2  0  0  0  0
 11 32  1  0  0  0  0
 12 13  1  0  0  0  0
 12 33  1  0  0  0  0
 13 14  2  0  0  0  0
 13 15  1  0  0  0  0
 15 16  1  0  0  0  0
 16 17  2  0  0  0  0
M  CHG  1  15  -1
M  END
> <s_m_source_file>
AV-unprocessed.smi

> <i_m_source_file_index>
2129

> <i_lp_mmshare_version>
43012

> <i_f3d_flags>
0

> <s_epik_input>
W0NIM11bQ0gyXUMoW0NIM10pKFtDSDNdKVtOSF1DKD1PKVtDSDJdbjFbY0hdW2NIXWMoPU8pW25IXWMxPU8=

> <s_epik_cmdline>
J2VwaWtfcHl0aG9uJywgJy1waCcsICc3LjAnLCAnLXRuJywgJzgnLCAnLW1hJywgJzIwMCcsICctbWV0YWxfYmluZGluZycsICctaW1hZScsICc8aW5maWxlLm1hZT4nLCAnLW9tYWUnLCAnPG91dGZpbGUubWFlPic=

> <r_lp_tautomer_probability>
0.999537

> <r_epik_Ionization_Penalty>
3.14534

> <r_epik_Ionization_Penalty_Charging>
2.92803e-08

> <r_epik_Ionization_Penalty_Neutral>
3.14534

> <r_epik_State_Penalty>
3.14446

> <r_epik_Charging_Adjusted_Penalty>
3.14446

> <i_epik_Tot_Q>
-1

> <i_epik_Tot_abs_Q>
1

> <r_epik_Metal_State_Penalty>
0.465837

> <b_epik_Metal_Only>
1

> <s_lp_Force_Field>
OPLS_2005

> <r_lp_Energy>
14.5296

> <b_lp_Chiralities_Consistent>
1

> <s_lp_Variant>
AV-unprocessed.smi:2129-2

> <Gold.Version>
5.8.1

> <Gold.Id.Protein>
6NUR|6NUR_protein|mol2

> <Gold.PLP.Fitness>
41.5184

> <Gold.PLP.PLP>
-36.5286

> <Gold.PLP.part.hbond>
-2.0000

> <Gold.PLP.part.metal>
0.0000

> <Gold.PLP.part.buried>
-2.7109

> <Gold.PLP.part.nonpolar>
-33.1113

> <Gold.PLP.part.repulsive>
0.3692

> <Gold.PLP.ligand.clash>
0.0000

> <Gold.PLP.ligand.torsion>
0.5154

> <Gold.PLP.Chemscore.Hbond>
2.0000

> <Gold.PLP.Chemscore.CHOScore>
0.0000

> <Gold.PLP.Chemscore.Metal>
0.0000

> <Gold.Chemscore.Hbonds>
donor molecule, donor type, donor heavy atom, donor atom, acceptor molecule, acceptor atom, score
      L1  H     6    29       P1  8028  0.88
      P1  H 10752 10763       L1    14  0.83

> <Gold.PLP.Chemscore.Internal.Correction>
0.0205

> <Gold.Rescore>
     Score         DG    S(hbond)    S(metal)    S(lipo)     H(rot)  DE(clash)    DE(int)     intcor
     13.88     -16.51       1.93        0.00      80.91       1.90       0.02       2.61       ----

> <Gold.Chemscore.Fitness>
13.8801

> <Gold.Chemscore.DG>
-16.5083

> <Gold.Chemscore.ZeroCoef>
-5.4800

> <Gold.Chemscore.Hbond>
1.9263

> <Gold.Chemscore.Metal>
0.0000

> <Gold.Chemscore.Lipo>
80.9104

> <Gold.Chemscore.Internal_Hbond>
0.0000

> <Gold.Chemscore.DEClash>
0.0197

> <Gold.Chemscore.DEInternal>
2.6085

> <Gold.Chemscore.Rot>
1.9031

> <Gold.Chemscore.Internal.Correction>
   9.000000E+99

> <Gold.Chemscore.Hbonds>
donor molecule, donor type, donor heavy atom, donor atom, acceptor molecule, acceptor atom, score
      L1  H     6    29       P1  8028  0.81
      P1  H 10752 10763       L1    14  0.80

> <Gold.Chemscore.Hbond.Weighted>
-6.4338

> <Gold.Chemscore.Metal.Weighted>
-0.0000

> <Gold.Chemscore.Lipo.Weighted>
-9.4665

> <Gold.Chemscore.Internal_Hbond.Weighted>
0.0000

> <Gold.Chemscore.DEClash.Weighted>
0.0197

> <Gold.Chemscore.DEInternal.Weighted>
2.6085

> <Gold.Chemscore.Rot.Weighted>
4.8720

> <Gold.Chemscore.Internal.Correction.Weighted>
   9.000000E+99

> <Gold.Protein.RotatedTorsions>
[ 6907 6896 6895 6894 ] final   77.61 input  -60.11 | X-H torsion
[ 7974 7965 7964 7962 ] final  -78.90 input  175.53 | X-H torsion
[ 8008 7997 7996 7995 ] final   80.19 input   59.86 | X-H torsion
[ 10167 10162 10161 10158 ] final  110.56 input  -65.29 | X-H torsion
[ 10718 10713 10712 10709 ] final   97.91 input   66.30 | X-H torsion
[ 10763 10752 10751 10750 ] final   55.65 input  -60.55 | X-H torsion
[ 11005 11000 10999 10996 ] final   24.26 input  -57.11 | X-H torsion

> <Gold.Protein.ActiveResidues>
 VAL166  LYS551  ARG553  GLY616  TRP617  ASP618  TYR619  PRO620  LYS621  CYS622 
 ASP623  PHE694  ASN695  SER759  ASP760  ASP761  ALA762  ILE779  LEU786  VAL792 
 PHE793  MET794  SER795  GLU796  ALA797  LYS798  CYS799  TRP800  GLU811  SER814 

> <Gold.Protein.RotatedAtoms>
  152.5125  134.3791  159.9344 H   0  0  0  0  0  0  0  0  0  0  0  0  # atno 6907 bound_to 6896
  151.3748  133.3836  159.2711 H   0  0  0  0  0  0  0  0  0  0  0  0  # atno 6908 bound_to 6896
  150.9550  134.8965  159.7754 H   0  0  0  0  0  0  0  0  0  0  0  0  # atno 6909 bound_to 6896
  145.5804  140.9449  143.1347 H   0  0  0  0  0  0  0  0  0  0  0  0  # atno 7974 bound_to 7965
  155.8801  140.3444  155.5882 H   0  0  0  0  0  0  0  0  0  0  0  0  # atno 8008 bound_to 7997
  155.7729  140.0848  157.2118 H   0  0  0  0  0  0  0  0  0  0  0  0  # atno 8009 bound_to 7997
  154.4024  140.1515  156.2950 H   0  0  0  0  0  0  0  0  0  0  0  0  # atno 8010 bound_to 7997
  139.6679  144.7126  151.1743 H   0  0  0  0  0  0  0  0  0  0  0  0  # atno 10167 bound_to 10162
  157.6905  131.0624  150.4715 H   0  0  0  0  0  0  0  0  0  0  0  0  # atno 10718 bound_to 10713
  152.9820  135.5703  154.5101 H   0  0  0  0  0  0  0  0  0  0  0  0  # atno 10763 bound_to 10752
  154.4606  135.2781  155.1717 H   0  0  0  0  0  0  0  0  0  0  0  0  # atno 10764 bound_to 10752
  154.3307  135.6250  153.5603 H   0  0  0  0  0  0  0  0  0  0  0  0  # atno 10765 bound_to 10752
  140.3607  134.2129  155.7672 H   0  0  0  0  0  0  0  0  0  0  0  0  # atno 11005 bound_to 11000
  144.7396  139.7485  143.7316 LP  0  0  0  0  0  0  0  0  0  0  0  0  # atno 17320 bound_to 7965
  146.1720  139.4875  142.9921 LP  0  0  0  0  0  0  0  0  0  0  0  0  # atno 17321 bound_to 7965
  140.7606  143.5891  150.8815 LP  0  0  0  0  0  0  0  0  0  0  0  0  # atno 17342 bound_to 10162
  139.9554  143.6225  152.3017 LP  0  0  0  0  0  0  0  0  0  0  0  0  # atno 17343 bound_to 10162
  156.5053  130.4126  149.6331 LP  0  0  0  0  0  0  0  0  0  0  0  0  # atno 17370 bound_to 10713
  156.3291  130.7321  151.2248 LP  0  0  0  0  0  0  0  0  0  0  0  0  # atno 17371 bound_to 10713
  141.1985  133.8034  157.0580 LP  0  0  0  0  0  0  0  0  0  0  0  0  # atno 17394 bound_to 11000
  140.0629  134.9745  157.1336 LP  0  0  0  0  0  0  0  0  0  0  0  0  # atno 17395 bound_to 11000

$$$$
