AV-unprocessed.smi:744|AV-procd|sdf|3571|dock3
  -GOLD-   22720 0563D 1   1.00000     0.00000
 Structure written by MMmdl.
 34 35  0  0  0  0  0  0  0  0  1 V2000
  150.8174  140.8652  156.2246 O   0  0  0  0  0  0  0  0  0  0  0  0
  150.2213  141.9371  156.1156 C   0  0  0  0  0  0  0  0  0  0  0  0
  149.3308  142.1912  155.1461 N   0  0  0  0  0  0  0  0  0  0  0  0
  148.9653  141.2645  154.0798 C   0  0  0  0  0  0  0  0  0  0  0  0
  147.9488  140.1976  154.5410 C   0  0  1  0  0  0  0  0  0  0  0  0
  146.9006  140.7616  155.5127 C   0  0  0  0  0  0  0  0  0  0  0  0
  145.6231  139.9305  155.3161 C   0  0  0  0  0  0  0  0  0  0  0  0
  145.9063  138.9695  154.1568 C   0  0  0  0  0  0  0  0  0  0  0  0
  147.1031  139.5736  153.4210 C   0  0  2  0  0  0  0  0  0  0  0  0
  147.7973  138.5805  152.6934 O   0  0  0  0  0  0  0  0  0  0  0  0
  150.3709  142.9981  156.9280 N   0  0  0  0  0  0  0  0  0  0  0  0
  151.2307  143.1303  158.0509 C   0  0  0  0  0  0  0  0  0  0  0  0
  151.3832  144.4490  158.5360 C   0  0  0  0  0  0  0  0  0  0  0  0
  152.2186  144.6876  159.6444 C   0  0  0  0  0  0  0  0  0  0  0  0
  152.8808  143.5997  160.2405 C   0  0  0  0  0  0  0  0  0  0  0  0
  152.6732  142.3186  159.6970 C   0  0  0  0  0  0  0  0  0  0  0  0
  151.8733  142.0878  158.6347 N   0  0  0  0  0  0  0  0  0  0  0  0
  148.8902  143.0993  155.1293 H   0  0  0  0  0  0  0  0  0  0  0  0
  148.5656  141.8229  153.2316 H   0  0  0  0  0  0  0  0  0  0  0  0
  149.8775  140.7830  153.7262 H   0  0  0  0  0  0  0  0  0  0  0  0
  148.4770  139.3970  155.0623 H   0  0  0  0  0  0  0  0  0  0  0  0
  147.2540  140.7296  156.5438 H   0  0  0  0  0  0  0  0  0  0  0  0
  146.6868  141.8054  155.2786 H   0  0  0  0  0  0  0  0  0  0  0  0
  145.3552  139.3832  156.2206 H   0  0  0  0  0  0  0  0  0  0  0  0
  144.7864  140.5865  155.0726 H   0  0  0  0  0  0  0  0  0  0  0  0
  146.1728  137.9927  154.5639 H   0  0  0  0  0  0  0  0  0  0  0  0
  145.0426  138.8293  153.5064 H   0  0  0  0  0  0  0  0  0  0  0  0
  146.7584  140.3496  152.7360 H   0  0  0  0  0  0  0  0  0  0  0  0
  148.3885  139.0077  152.0923 H   0  0  0  0  0  0  0  0  0  0  0  0
  149.8122  143.8102  156.7117 H   0  0  0  0  0  0  0  0  0  0  0  0
  150.8675  145.2737  158.0655 H   0  0  0  0  0  0  0  0  0  0  0  0
  152.3487  145.6882  160.0294 H   0  0  0  0  0  0  0  0  0  0  0  0
  153.5301  143.7427  161.0915 H   0  0  0  0  0  0  0  0  0  0  0  0
  153.1623  141.4564  160.1254 H   0  0  0  0  0  0  0  0  0  0  0  0
  1  2  2  0  0  0  0
  2  3  1  0  0  0  0
  2 11  1  0  0  0  0
  3  4  1  0  0  0  0
  3 18  1  0  0  0  0
  4  5  1  0  0  0  0
  4 19  1  0  0  0  0
  4 20  1  0  0  0  0
  5  9  1  0  0  0  0
  5  6  1  0  0  0  0
  5 21  1  0  0  0  0
  6  7  1  0  0  0  0
  6 22  1  0  0  0  0
  6 23  1  0  0  0  0
  7  8  1  0  0  0  0
  7 24  1  0  0  0  0
  7 25  1  0  0  0  0
  8  9  1  0  0  0  0
  8 26  1  0  0  0  0
  8 27  1  0  0  0  0
  9 10  1  0  0  0  0
  9 28  1  0  0  0  0
 10 29  1  0  0  0  0
 11 12  1  0  0  0  0
 11 30  1  0  0  0  0
 12 17  1  0  0  0  0
 12 13  2  0  0  0  0
 13 14  1  0  0  0  0
 13 31  1  0  0  0  0
 14 15  2  0  0  0  0
 14 32  1  0  0  0  0
 15 16  1  0  0  0  0
 15 33  1  0  0  0  0
 16 17  2  0  0  0  0
 16 34  1  0  0  0  0
M  END
> <s_m_source_file>
AV-unprocessed.smi

> <i_m_source_file_index>
744

> <i_lp_mmshare_version>
43012

> <i_f3d_flags>
0

> <s_epik_input>
bjFbY0hdW2NIXVtjSF1bY0hdYzFbTkhdQyg9TylbTkhdW0NIMl1bQ0BASF0yW0NIMl1bQ0gyXVtDSDJdW0NASF0yW09IXQ==

> <s_epik_cmdline>
J2VwaWtfcHl0aG9uJywgJy1waCcsICc3LjAnLCAnLXRuJywgJzgnLCAnLW1hJywgJzIwMCcsICctbWV0YWxfYmluZGluZycsICctaW1hZScsICc8aW5maWxlLm1hZT4nLCAnLW9tYWUnLCAnPG91dGZpbGUubWFlPic=

> <r_lp_tautomer_probability>
1

> <r_epik_Ionization_Penalty>
5.04769e-05

> <r_epik_Ionization_Penalty_Charging>
0

> <r_epik_Ionization_Penalty_Neutral>
5.04769e-05

> <r_epik_State_Penalty>
-0

> <r_epik_Charging_Adjusted_Penalty>
0

> <i_epik_Tot_Q>
0

> <i_epik_Tot_abs_Q>
0

> <r_epik_Metal_State_Penalty>
-0

> <b_epik_Metal_Only>
0

> <s_lp_Force_Field>
OPLS_2005

> <r_lp_Energy>
24.4032

> <b_lp_Chiralities_Consistent>
1

> <s_lp_Variant>
AV-unprocessed.smi:744-4

> <Gold.Version>
5.8.1

> <Gold.Id.Protein>
6NUR|6NUR_protein|mol2

> <Gold.PLP.Fitness>
41.4540

> <Gold.PLP.PLP>
-33.2898

> <Gold.PLP.part.hbond>
-3.9300

> <Gold.PLP.part.metal>
0.0000

> <Gold.PLP.part.buried>
-2.7118

> <Gold.PLP.part.nonpolar>
-26.3390

> <Gold.PLP.part.repulsive>
0.2566

> <Gold.PLP.ligand.clash>
0.0000

> <Gold.PLP.ligand.torsion>
0.4188

> <Gold.PLP.Chemscore.Hbond>
3.0000

> <Gold.PLP.Chemscore.CHOScore>
0.0000

> <Gold.PLP.Chemscore.Metal>
0.0000

> <Gold.Chemscore.Hbonds>
donor molecule, donor type, donor heavy atom, donor atom, acceptor molecule, acceptor atom, score
      L1  H     3    18       P1  8028  0.99
      L1  H    10    29       P1  7957  1.00
      L1  H    11    30       P1  8028  1.00

> <Gold.PLP.Chemscore.Internal.Correction>
0.0018

> <Gold.Rescore>
     Score         DG    S(hbond)    S(metal)    S(lipo)     H(rot)  DE(clash)    DE(int)     intcor
     17.70     -19.46       2.91        0.00      75.98       1.81       0.04       1.72       ----

> <Gold.Chemscore.Fitness>
17.7001

> <Gold.Chemscore.DG>
-19.4630

> <Gold.Chemscore.ZeroCoef>
-5.4800

> <Gold.Chemscore.Hbond>
2.9085

> <Gold.Chemscore.Metal>
0.0000

> <Gold.Chemscore.Lipo>
75.9803

> <Gold.Chemscore.Internal_Hbond>
0.0000

> <Gold.Chemscore.DEClash>
0.0437

> <Gold.Chemscore.DEInternal>
1.7192

> <Gold.Chemscore.Rot>
1.8052

> <Gold.Chemscore.Internal.Correction>
   9.000000E+99

> <Gold.Chemscore.Hbonds>
donor molecule, donor type, donor heavy atom, donor atom, acceptor molecule, acceptor atom, score
      L1  H     3    18       P1  8028  0.94
      L1  H    10    29       P1  7957  0.98
      L1  H    11    30       P1  8028  0.96

> <Gold.Chemscore.Hbond.Weighted>
-9.7145

> <Gold.Chemscore.Metal.Weighted>
-0.0000

> <Gold.Chemscore.Lipo.Weighted>
-8.8897

> <Gold.Chemscore.Internal_Hbond.Weighted>
0.0000

> <Gold.Chemscore.DEClash.Weighted>
0.0437

> <Gold.Chemscore.DEInternal.Weighted>
1.7192

> <Gold.Chemscore.Rot.Weighted>
4.6212

> <Gold.Chemscore.Internal.Correction.Weighted>
   9.000000E+99

> <Gold.Protein.RotatedTorsions>
[ 6907 6896 6895 6894 ] final   30.54 input  -60.11 | X-H torsion
[ 7974 7965 7964 7962 ] final -143.92 input  175.53 | X-H torsion
[ 8008 7997 7996 7995 ] final -173.89 input   59.86 | X-H torsion
[ 10167 10162 10161 10158 ] final  -53.89 input  -65.29 | X-H torsion
[ 10718 10713 10712 10709 ] final  123.98 input   66.30 | X-H torsion
[ 10763 10752 10751 10750 ] final   75.46 input  -60.55 | X-H torsion
[ 11005 11000 10999 10996 ] final  -82.39 input  -57.11 | X-H torsion

> <Gold.Protein.ActiveResidues>
 VAL166  LYS551  ARG553  GLY616  TRP617  ASP618  TYR619  PRO620  LYS621  CYS622 
 ASP623  PHE694  ASN695  SER759  ASP760  ASP761  ALA762  ILE779  LEU786  VAL792 
 PHE793  MET794  SER795  GLU796  ALA797  LYS798  CYS799  TRP800  GLU811  SER814 

> <Gold.Protein.RotatedAtoms>
  152.0474  134.9674  160.0574 H   0  0  0  0  0  0  0  0  0  0  0  0  # atno 6907 bound_to 6896
  152.1089  133.4285  159.4630 H   0  0  0  0  0  0  0  0  0  0  0  0  # atno 6908 bound_to 6896
  150.6842  134.2591  159.4585 H   0  0  0  0  0  0  0  0  0  0  0  0  # atno 6909 bound_to 6896
  144.8335  140.5775  143.5499 H   0  0  0  0  0  0  0  0  0  0  0  0  # atno 7974 bound_to 7965
  155.9632  140.1148  157.0877 H   0  0  0  0  0  0  0  0  0  0  0  0  # atno 8008 bound_to 7997
  154.4137  140.1178  156.5274 H   0  0  0  0  0  0  0  0  0  0  0  0  # atno 8009 bound_to 7997
  155.6693  140.3473  155.4814 H   0  0  0  0  0  0  0  0  0  0  0  0  # atno 8010 bound_to 7997
  140.6460  143.2536  151.4857 H   0  0  0  0  0  0  0  0  0  0  0  0  # atno 10167 bound_to 10162
  157.5622  131.1089  150.8518 H   0  0  0  0  0  0  0  0  0  0  0  0  # atno 10718 bound_to 10713
  153.0656  135.4988  154.8192 H   0  0  0  0  0  0  0  0  0  0  0  0  # atno 10763 bound_to 10752
  154.6948  135.2991  154.9429 H   0  0  0  0  0  0  0  0  0  0  0  0  # atno 10764 bound_to 10752
  154.0172  135.6746  153.4822 H   0  0  0  0  0  0  0  0  0  0  0  0  # atno 10765 bound_to 10752
  141.1663  133.7242  156.8564 H   0  0  0  0  0  0  0  0  0  0  0  0  # atno 11005 bound_to 11000
  145.4845  139.1493  143.3743 LP  0  0  0  0  0  0  0  0  0  0  0  0  # atno 17320 bound_to 7965
  146.2636  140.4982  142.8843 LP  0  0  0  0  0  0  0  0  0  0  0  0  # atno 17321 bound_to 7965
  139.5671  144.2016  152.1781 LP  0  0  0  0  0  0  0  0  0  0  0  0  # atno 17342 bound_to 10162
  140.1301  144.5296  150.6808 LP  0  0  0  0  0  0  0  0  0  0  0  0  # atno 17343 bound_to 10162
  156.9013  130.5247  149.5282 LP  0  0  0  0  0  0  0  0  0  0  0  0  # atno 17370 bound_to 10713
  156.0673  130.5714  150.9314 LP  0  0  0  0  0  0  0  0  0  0  0  0  # atno 17371 bound_to 10713
  140.1879  134.8986  157.3026 LP  0  0  0  0  0  0  0  0  0  0  0  0  # atno 17394 bound_to 11000
  140.2322  134.3895  155.7516 LP  0  0  0  0  0  0  0  0  0  0  0  0  # atno 17395 bound_to 11000

$$$$
