#       Name:                AV-unprocessed.smi:2468
#       Creating user name   scv26
#       Creation time:       Fri Mar 27 13:37:13 2020


#       File generated by GOLD software.
#

@<TRIPOS>MOLECULE
AV-unprocessed.smi:2468
    37    38     1
SMALL
NO_CHARGES


@<TRIPOS>ATOM
      1 ****        -4.4880   3.2005  -0.2210 C.3            1 S1                 0.0000
      2 ****        -3.7203   1.8985  -0.0880 C.ar           1 S1                 0.0000
      3 ****        -4.4749   0.7843   0.0301 N.ar           1 S1                 0.0000
      4 ****        -3.8421  -0.4013   0.1426 C.ar           1 S1                 0.0000
      5 ****        -2.4406  -0.5341   0.1485 C.ar           1 S1                 0.0000
      6 ****        -1.6462   0.6329   0.0421 C.ar           1 S1                 0.0000
      7 ****        -0.2237   0.6143   0.0162 N.am           1 S1                 0.0000
      8 ****         0.6205  -0.3235   0.4837 C.2            1 S1                 0.0000
      9 ****         0.2717  -1.3441   1.0775 O.2            1 S1                 0.0000
     10 ****         2.1164  -0.0311   0.2752 C.3            1 S1                 0.0000
     11 ****         2.7455  -0.0575   1.5578 O.3            1 S1                 0.0000
     12 ****         3.7019  -1.1121   1.6360 C.3            1 S1                 0.0000
     13 ****         3.3737  -2.0534   0.4824 C.3            1 S1                 0.0000
     14 ****         2.8836  -1.0747  -0.5650 C.3            1 S1                 0.0000
     15 ****         2.1312  -1.7218  -1.7419 C.3            1 S1                 0.0000
     16 ****        -2.3058   1.8774  -0.0927 C.ar           1 S1                 0.0000
     17 ****        -1.4018   3.3461  -0.2554 Cl             1 S1                 0.0000
     18 ****        -4.2339   3.8751   0.5971 H              1 S1                 0.0000
     19 ****        -5.5660   3.0358  -0.1997 H              1 S1                 0.0000
     20 ****        -4.2407   3.6913  -1.1626 H              1 S1                 0.0000
     21 ****        -4.4730  -1.2741   0.2228 H              1 S1                 0.0000
     22 ****        -2.0100  -1.5207   0.2203 H              1 S1                 0.0000
     23 ****         0.2090   1.4470  -0.3569 H              1 S1                 0.0000
     24 ****         2.2377   0.9616  -0.1615 H              1 S1                 0.0000
     25 ****         4.6982  -0.6875   1.5071 H              1 S1                 0.0000
     26 ****         3.6685  -1.6102   2.6050 H              1 S1                 0.0000
     27 ****         4.2348  -2.6361   0.1542 H              1 S1                 0.0000
     28 ****         2.5817  -2.7463   0.7693 H              1 S1                 0.0000
     29 ****         3.7584  -0.5709  -0.9800 H              1 S1                 0.0000
     30 ****         1.2857  -2.3238  -1.4083 H              1 S1                 0.0000
     31 ****         2.7929  -2.3784  -2.3072 H              1 S1                 0.0000
     32 ****         1.7541  -0.9633  -2.4284 H              1 S1                 0.0000
     33 ****        -5.4735   0.8371   0.0340 LP             1 S1                 0.0000
     34 ****        -0.6989  -1.5204   1.2410 LP             1 S1                 0.0000
     35 ****         0.9591  -1.9968   1.3961 LP             1 S1                 0.0000
     36 ****         2.0483  -0.1955   2.2613 LP             1 S1                 0.0000
     37 ****         3.2078   0.8155   1.7134 LP             1 S1                 0.0000
@<TRIPOS>BOND
    1    1    2 1     
    2    1   18 1     
    3    1   19 1     
    4    1   20 1     
    5    2   16 ar    
    6    2    3 ar    
    7    3    4 ar    
    8    4    5 ar    
    9    4   21 1     
   10    5    6 ar    
   11    5   22 1     
   12    6    7 1     
   13    6   16 ar    
   14    7    8 am    
   15    7   23 1     
   16    8    9 2     
   17    8   10 1     
   18   10   14 1     
   19   10   11 1     
   20   10   24 1     
   21   11   12 1     
   22   12   13 1     
   23   12   25 1     
   24   12   26 1     
   25   13   14 1     
   26   13   27 1     
   27   13   28 1     
   28   14   15 1     
   29   14   29 1     
   30   15   30 1     
   31   15   31 1     
   32   15   32 1     
   33   16   17 1     
   34    3   33 1     
   35    9   34 1     
   36    9   35 1     
   37   11   36 1     
   38   11   37 1     
@<TRIPOS>SUBSTRUCTURE
      1 S1             1
@<TRIPOS>SET
LONE_PAIRS      STATIC     ATOMS    <user>   **** ""
5 33 34 35 36 37
DONOR_HYDROGENS      STATIC     ATOMS    <user>   **** ""
1 23
ATOM$BLUE        STATIC     ATOMS    COLORGROUP SYSTEM
5 33 34 35 36 37
ATOM$RED        STATIC     ATOMS    COLORGROUP SYSTEM
1 23
