AV-unprocessed.smi:1513|AV-procd|sdf|6108|dock6
  -GOLD-   22720 6243D 1   1.00000     0.00000
 Structure written by MMmdl.
 34 35  0  0  0  0  0  0  0  0  1 V2000
  154.8345  139.0238  161.8128 N   0  0  0  0  0  0  0  0  0  0  0  0
  155.5484  139.9207  160.5328 S   0  0  0  0  0  0  0  0  0  0  0  0
  156.8953  140.3460  160.9419 O   0  0  0  0  0  0  0  0  0  0  0  0
  155.3167  139.2074  159.2678 O   0  0  0  0  0  0  0  0  0  0  0  0
  154.5156  141.2966  160.5741 N   0  0  0  0  0  0  0  0  0  0  0  0
  153.0792  141.1293  160.3603 C   0  0  0  0  0  0  0  0  0  0  0  0
  152.4877  142.2379  159.5036 C   0  0  0  0  0  0  0  0  0  0  0  0
  152.6247  143.5833  159.9056 C   0  0  0  0  0  0  0  0  0  0  0  0
  152.0636  144.5972  159.1076 C   0  0  0  0  0  0  0  0  0  0  0  0
  151.3829  144.2234  157.9339 C   0  0  0  0  0  0  0  0  0  0  0  0
  151.2429  142.9413  157.5366 N   0  0  0  0  0  0  0  0  0  0  0  0
  151.7827  141.9629  158.3034 C   0  0  0  0  0  0  0  0  0  0  0  0
  151.6360  140.6378  157.8625 N   0  0  0  0  0  0  0  0  0  0  0  0
  150.8941  139.7580  158.7563 C   0  0  0  0  0  0  0  0  0  0  0  0
  150.9752  138.3112  158.2414 C   0  0  0  0  0  0  0  0  0  0  0  0
  150.4891  138.2557  156.9027 O   0  0  0  0  0  0  0  0  0  0  0  0
  151.2572  139.0670  156.0175 C   0  0  0  0  0  0  0  0  0  0  0  0
  151.2022  140.5348  156.4763 C   0  0  0  0  0  0  0  0  0  0  0  0
  155.4036  138.2238  162.0889 H   0  0  0  0  0  0  0  0  0  0  0  0
  153.8610  138.7862  161.6235 H   0  0  0  0  0  0  0  0  0  0  0  0
  154.7600  141.9773  161.2927 H   0  0  0  0  0  0  0  0  0  0  0  0
  152.9022  140.1549  159.9042 H   0  0  0  0  0  0  0  0  0  0  0  0
  152.5675  141.1171  161.3232 H   0  0  0  0  0  0  0  0  0  0  0  0
  153.1502  143.8378  160.8143 H   0  0  0  0  0  0  0  0  0  0  0  0
  152.1518  145.6361  159.3893 H   0  0  0  0  0  0  0  0  0  0  0  0
  150.9394  144.9738  157.2965 H   0  0  0  0  0  0  0  0  0  0  0  0
  151.3057  139.8227  159.7643 H   0  0  0  0  0  0  0  0  0  0  0  0
  149.8513  140.0739  158.8081 H   0  0  0  0  0  0  0  0  0  0  0  0
  152.0003  137.9395  158.2840 H   0  0  0  0  0  0  0  0  0  0  0  0
  150.3712  137.6543  158.8671 H   0  0  0  0  0  0  0  0  0  0  0  0
  152.2870  138.7093  155.9831 H   0  0  0  0  0  0  0  0  0  0  0  0
  150.8547  138.9730  155.0091 H   0  0  0  0  0  0  0  0  0  0  0  0
  150.1846  140.9173  156.3849 H   0  0  0  0  0  0  0  0  0  0  0  0
  151.8379  141.1508  155.8390 H   0  0  0  0  0  0  0  0  0  0  0  0
  1  2  1  0  0  0  0
  1 19  1  0  0  0  0
  1 20  1  0  0  0  0
  2  3  2  0  0  0  0
  2  4  2  0  0  0  0
  2  5  1  0  0  0  0
  5  6  1  0  0  0  0
  5 21  1  0  0  0  0
  6  7  1  0  0  0  0
  6 22  1  0  0  0  0
  6 23  1  0  0  0  0
  7 12  1  0  0  0  0
  7  8  2  0  0  0  0
  8  9  1  0  0  0  0
  8 24  1  0  0  0  0
  9 10  2  0  0  0  0
  9 25  1  0  0  0  0
 10 11  1  0  0  0  0
 10 26  1  0  0  0  0
 11 12  2  0  0  0  0
 12 13  1  0  0  0  0
 13 18  1  0  0  0  0
 13 14  1  0  0  0  0
 14 15  1  0  0  0  0
 14 27  1  0  0  0  0
 14 28  1  0  0  0  0
 15 16  1  0  0  0  0
 15 29  1  0  0  0  0
 15 30  1  0  0  0  0
 16 17  1  0  0  0  0
 17 18  1  0  0  0  0
 17 31  1  0  0  0  0
 17 32  1  0  0  0  0
 18 33  1  0  0  0  0
 18 34  1  0  0  0  0
M  END
> <s_m_source_file>
AV-unprocessed.smi

> <i_m_source_file_index>
1513

> <i_lp_mmshare_version>
43012

> <i_f3d_flags>
0

> <s_epik_input>
W05IMl1TKD1PKSg9TylbTkhdW0NIMl1jMVtjSF1bY0hdW2NIXW5jMU4yW0NIMl1bQ0gyXU9bQ0gyXVtDSDJdMg==

> <s_epik_cmdline>
J2VwaWtfcHl0aG9uJywgJy1waCcsICc3LjAnLCAnLXRuJywgJzgnLCAnLW1hJywgJzIwMCcsICctbWV0YWxfYmluZGluZycsICctaW1hZScsICc8aW5maWxlLm1hZT4nLCAnLW9tYWUnLCAnPG91dGZpbGUubWFlPic=

> <r_lp_tautomer_probability>
1

> <r_epik_Ionization_Penalty>
0.193648

> <r_epik_Ionization_Penalty_Charging>
0

> <r_epik_Ionization_Penalty_Neutral>
0.193648

> <r_epik_State_Penalty>
0.187016

> <r_epik_Charging_Adjusted_Penalty>
0.187016

> <i_epik_Tot_Q>
0

> <i_epik_Tot_abs_Q>
0

> <r_epik_Metal_State_Penalty>
0.77957

> <b_epik_Metal_Only>
0

> <s_lp_Force_Field>
OPLS_2005

> <r_lp_Energy>
22.2983

> <b_lp_Chiralities_Consistent>
1

> <s_lp_Variant>
AV-unprocessed.smi:1513-1

> <Gold.Version>
5.8.1

> <Gold.Id.Protein>
6NUR|6NUR_protein|mol2

> <Gold.PLP.Fitness>
39.0432

> <Gold.PLP.PLP>
-33.8658

> <Gold.PLP.part.hbond>
-2.5803

> <Gold.PLP.part.metal>
0.0000

> <Gold.PLP.part.buried>
-5.2202

> <Gold.PLP.part.nonpolar>
-27.6217

> <Gold.PLP.part.repulsive>
0.1083

> <Gold.PLP.ligand.clash>
0.0000

> <Gold.PLP.ligand.torsion>
0.5176

> <Gold.PLP.Chemscore.Hbond>
1.0000

> <Gold.PLP.Chemscore.CHOScore>
0.9842

> <Gold.PLP.Chemscore.Metal>
0.0000

> <Gold.Chemscore.Hbonds>
donor molecule, donor type, donor heavy atom, donor atom, acceptor molecule, acceptor atom, score
      P1  H  7997  8010       L1     4  0.91
      L1  C    10    26       P1  8028  0.84

> <Gold.PLP.Chemscore.Internal.Correction>
0.2601

> <Gold.Rescore>
     Score         DG    S(hbond)    S(metal)    S(lipo)     H(rot)  DE(clash)    DE(int)     intcor
     11.23     -11.90       1.00        0.00      80.38       2.47       0.00       0.67       ----

> <Gold.Chemscore.Fitness>
11.2274

> <Gold.Chemscore.DG>
-11.9041

> <Gold.Chemscore.ZeroCoef>
-5.4800

> <Gold.Chemscore.Hbond>
0.9985

> <Gold.Chemscore.Metal>
0.0000

> <Gold.Chemscore.Lipo>
80.3841

> <Gold.Chemscore.Internal_Hbond>
0.0000

> <Gold.Chemscore.DEClash>
0.0029

> <Gold.Chemscore.DEInternal>
0.6738

> <Gold.Chemscore.Rot>
2.4671

> <Gold.Chemscore.Internal.Correction>
   9.000000E+99

> <Gold.Chemscore.Hbonds>
donor molecule, donor type, donor heavy atom, donor atom, acceptor molecule, acceptor atom, score
      P1  H  7997  8010       L1     4  0.87

> <Gold.Chemscore.Hbond.Weighted>
-3.3348

> <Gold.Chemscore.Metal.Weighted>
-0.0000

> <Gold.Chemscore.Lipo.Weighted>
-9.4049

> <Gold.Chemscore.Internal_Hbond.Weighted>
0.0000

> <Gold.Chemscore.DEClash.Weighted>
0.0029

> <Gold.Chemscore.DEInternal.Weighted>
0.6738

> <Gold.Chemscore.Rot.Weighted>
6.3157

> <Gold.Chemscore.Internal.Correction.Weighted>
   9.000000E+99

> <Gold.Protein.RotatedTorsions>
[ 6907 6896 6895 6894 ] final  -74.78 input  -60.11 | X-H torsion
[ 7974 7965 7964 7962 ] final  -52.21 input  175.53 | X-H torsion
[ 8008 7997 7996 7995 ] final  -14.21 input   59.86 | X-H torsion
[ 10167 10162 10161 10158 ] final  174.15 input  -65.29 | X-H torsion
[ 10718 10713 10712 10709 ] final  -45.78 input   66.30 | X-H torsion
[ 10763 10752 10751 10750 ] final  -20.70 input  -60.55 | X-H torsion
[ 11005 11000 10999 10996 ] final  -51.74 input  -57.11 | X-H torsion

> <Gold.Protein.ActiveResidues>
 VAL166  LYS551  ARG553  GLY616  TRP617  ASP618  TYR619  PRO620  LYS621  CYS622 
 ASP623  PHE694  ASN695  SER759  ASP760  ASP761  ALA762  ILE779  LEU786  VAL792 
 PHE793  MET794  SER795  GLU796  ALA797  LYS798  CYS799  TRP800  GLU811  SER814 

> <Gold.Protein.RotatedAtoms>
  150.7081  134.4818  159.5473 H   0  0  0  0  0  0  0  0  0  0  0  0  # atno 6907 bound_to 6896
  152.2453  134.8184  160.0463 H   0  0  0  0  0  0  0  0  0  0  0  0  # atno 6908 bound_to 6896
  151.8951  133.3490  159.3848 H   0  0  0  0  0  0  0  0  0  0  0  0  # atno 6909 bound_to 6896
  145.9105  140.7919  142.9698 H   0  0  0  0  0  0  0  0  0  0  0  0  # atno 7974 bound_to 7965
  154.5229  140.2229  155.8943 H   0  0  0  0  0  0  0  0  0  0  0  0  # atno 8008 bound_to 7997
  156.1681  140.3128  155.8890 H   0  0  0  0  0  0  0  0  0  0  0  0  # atno 8009 bound_to 7997
  155.3614  140.0461  157.3037 H   0  0  0  0  0  0  0  0  0  0  0  0  # atno 8010 bound_to 7997
  139.5132  144.3180  152.0230 H   0  0  0  0  0  0  0  0  0  0  0  0  # atno 10167 bound_to 10162
  156.2249  130.4168  149.8946 H   0  0  0  0  0  0  0  0  0  0  0  0  # atno 10718 bound_to 10713
  153.6246  135.6991  153.5298 H   0  0  0  0  0  0  0  0  0  0  0  0  # atno 10763 bound_to 10752
  153.2909  135.4157  155.1166 H   0  0  0  0  0  0  0  0  0  0  0  0  # atno 10764 bound_to 10752
  154.8536  135.3625  154.5787 H   0  0  0  0  0  0  0  0  0  0  0  0  # atno 10765 bound_to 10752
  141.0887  133.6637  156.3921 H   0  0  0  0  0  0  0  0  0  0  0  0  # atno 11005 bound_to 11000
  144.6743  140.1818  143.7405 LP  0  0  0  0  0  0  0  0  0  0  0  0  # atno 17320 bound_to 7965
  145.8678  139.2256  143.1679 LP  0  0  0  0  0  0  0  0  0  0  0  0  # atno 17321 bound_to 7965
  140.2622  144.4054  150.6181 LP  0  0  0  0  0  0  0  0  0  0  0  0  # atno 17342 bound_to 10162
  140.6149  143.2171  151.6812 LP  0  0  0  0  0  0  0  0  0  0  0  0  # atno 17343 bound_to 10162
  156.6580  130.8770  151.3542 LP  0  0  0  0  0  0  0  0  0  0  0  0  # atno 17370 bound_to 10713
  157.7106  130.9435  150.1075 LP  0  0  0  0  0  0  0  0  0  0  0  0  # atno 17371 bound_to 10713
  140.5303  134.6219  157.5347 LP  0  0  0  0  0  0  0  0  0  0  0  0  # atno 17394 bound_to 11000
  139.9709  134.7294  156.0043 LP  0  0  0  0  0  0  0  0  0  0  0  0  # atno 17395 bound_to 11000

$$$$
