#       Name:                AV-unprocessed.smi:2931
#       Creating user name   scv26
#       Creation time:       Fri Mar 27 16:13:54 2020


#       File generated by GOLD software.
#

@<TRIPOS>MOLECULE
AV-unprocessed.smi:2931
    45    46     1
SMALL
NO_CHARGES


@<TRIPOS>ATOM
      1 ****        -2.4739   0.0333   1.8397 C.3            1 S1                 0.0000
      2 ****        -2.1247   0.2537   0.4203 N.4            1 S1                 1.0000
      3 ****        -3.1786  -0.2343  -0.5046 C.3            1 S1                 0.0000
      4 ****        -2.7368  -0.1016  -1.9730 C.3            1 S1                 0.0000
      5 ****        -2.2982   1.3367  -2.3013 C.3            1 S1                 0.0000
      6 ****        -1.2322   1.8284  -1.3056 C.3            1 S1                 0.0000
      7 ****         0.0136   1.0909  -1.5138 N.am           1 S1                 0.0000
      8 ****         1.2042   1.4146  -0.9919 C.2            1 S1                 0.0000
      9 ****         1.4084   2.4154  -0.3056 O.2            1 S1                 0.0000
     10 ****         2.1314   0.4884  -1.2686 N.am           1 S1                 0.0000
     11 ****         3.4878   0.4700  -0.7292 C.3            1 S1                 0.0000
     12 ****         3.5335   0.1681   0.7842 C.3            1 S1                 0.0000
     13 ****         2.6512  -0.9963   1.2050 C.ar           1 S1                 0.0000
     14 ****         1.4762  -0.7772   1.9550 C.ar           1 S1                 0.0000
     15 ****         0.6881  -1.8903   2.3092 C.ar           1 S1                 0.0000
     16 ****         0.9943  -3.1575   1.9596 N.ar           1 S1                 0.0000
     17 ****         2.1218  -3.3603   1.2441 C.ar           1 S1                 0.0000
     18 ****         2.9817  -2.3182   0.8426 C.ar           1 S1                 0.0000
     19 ****        -1.7583   1.6645   0.1390 C.3            1 S1                 0.0000
     20 ****        -3.3698   0.5916   2.1141 H              1 S1                 0.0000
     21 ****        -1.6591   0.3512   2.4909 H              1 S1                 0.0000
     22 ****        -2.6569  -1.0247   2.0300 H              1 S1                 0.0000
     23 ****        -3.4023  -1.2789  -0.2849 H              1 S1                 0.0000
     24 ****        -4.0985   0.3287  -0.3385 H              1 S1                 0.0000
     25 ****        -1.9165  -0.7929  -2.1701 H              1 S1                 0.0000
     26 ****        -3.5509  -0.4006  -2.6339 H              1 S1                 0.0000
     27 ****        -1.9232   1.3936  -3.3240 H              1 S1                 0.0000
     28 ****        -3.1657   1.9967  -2.2568 H              1 S1                 0.0000
     29 ****        -1.0378   2.8849  -1.4984 H              1 S1                 0.0000
     30 ****        -0.0442   0.2518  -2.0723 H              1 S1                 0.0000
     31 ****         1.8650  -0.2952  -1.8467 H              1 S1                 0.0000
     32 ****         4.0314  -0.3080  -1.2660 H              1 S1                 0.0000
     33 ****         3.9973   1.4093  -0.9486 H              1 S1                 0.0000
     34 ****         4.5603  -0.0405   1.0865 H              1 S1                 0.0000
     35 ****         3.2342   1.0566   1.3415 H              1 S1                 0.0000
     36 ****         1.1828   0.2191   2.2524 H              1 S1                 0.0000
     37 ****        -0.2163  -1.7587   2.8843 H              1 S1                 0.0000
     38 ****         2.3443  -4.3839   0.9813 H              1 S1                 0.0000
     39 ****         3.8710  -2.5310   0.2674 H              1 S1                 0.0000
     40 ****        -2.6306   2.3020   0.2926 H              1 S1                 0.0000
     41 ****        -1.0067   1.9970   0.8561 H              1 S1                 0.0000
     42 ****        -1.2985  -0.2984   0.2392 H              1 S1                 0.0000
     43 ****         0.6589   3.0469  -0.1069 LP             1 S1                 0.0000
     44 ****         2.3239   2.5973   0.0533 LP             1 S1                 0.0000
     45 ****         0.4052  -3.9217   2.2219 LP             1 S1                 0.0000
@<TRIPOS>BOND
    1    1    2 1     
    2    1   20 1     
    3    1   21 1     
    4    1   22 1     
    5    2   19 1     
    6    2    3 1     
    7    2   42 1     
    8    3    4 1     
    9    3   23 1     
   10    3   24 1     
   11    4    5 1     
   12    4   25 1     
   13    4   26 1     
   14    5    6 1     
   15    5   27 1     
   16    5   28 1     
   17    6    7 1     
   18    6   19 1     
   19    6   29 1     
   20    7    8 am    
   21    7   30 1     
   22    8    9 2     
   23    8   10 am    
   24   10   11 1     
   25   10   31 1     
   26   11   12 1     
   27   11   32 1     
   28   11   33 1     
   29   12   13 1     
   30   12   34 1     
   31   12   35 1     
   32   13   18 ar    
   33   13   14 ar    
   34   14   15 ar    
   35   14   36 1     
   36   15   16 ar    
   37   15   37 1     
   38   16   17 ar    
   39   17   18 ar    
   40   17   38 1     
   41   18   39 1     
   42   19   40 1     
   43   19   41 1     
   44    9   43 1     
   45    9   44 1     
   46   16   45 1     
@<TRIPOS>SUBSTRUCTURE
      1 S1             1
@<TRIPOS>SET
LONE_PAIRS      STATIC     ATOMS    <user>   **** ""
3 43 44 45
DONOR_HYDROGENS      STATIC     ATOMS    <user>   **** ""
3 42 30 31
ATOM$BLUE        STATIC     ATOMS    COLORGROUP SYSTEM
3 43 44 45
ATOM$RED        STATIC     ATOMS    COLORGROUP SYSTEM
3 42 30 31
