AV-unprocessed.smi:244|AV-procd|sdf|1865|dock10
  -GOLD-   2262020503D 1   1.00000     0.00000
 Structure written by MMmdl.
 57 61  0  0  0  0  0  0  0  0  2 V2000
  147.8397  142.1832  157.8924 C   0  0  0  0  0  0  0  0  0  0  0  0
  147.8161  142.2621  156.4134 N   0  3  2  0  0  0  0  0  0  0  0  0
  146.4475  142.2107  155.8369 C   0  0  0  0  0  0  0  0  0  0  0  0
  145.8715  140.7827  155.8354 C   0  0  0  0  0  0  0  0  0  0  0  0
  146.8233  139.8199  155.1151 C   0  0  2  0  0  0  0  0  0  0  0  0
  146.3005  138.4977  155.1757 O   0  0  0  0  0  0  0  0  0  0  0  0
  147.1148  137.5765  154.4576 C   0  0  0  0  0  0  0  0  0  0  0  0
  148.5210  137.5501  155.0771 C   0  0  0  0  0  0  0  0  0  0  0  0
  149.0926  138.8947  155.1029 N   0  0  0  0  0  0  0  0  0  0  0  0
  150.3818  138.9138  155.5124 C   0  0  0  0  0  0  0  0  0  0  0  0
  151.3633  139.3224  154.6656 N   0  0  0  0  0  0  0  0  0  0  0  0
  152.6369  139.3187  155.0712 C   0  0  0  0  0  0  0  0  0  0  0  0
  153.1364  138.9452  156.2517 N   0  0  0  0  0  0  0  0  0  0  0  0
  152.1515  138.5292  157.0991 C   0  0  0  0  0  0  0  0  0  0  0  0
  150.7601  138.4792  156.8094 C   0  0  0  0  0  0  0  0  0  0  0  0
  150.0596  137.9863  157.9021 N   0  0  0  0  0  0  0  0  0  0  0  0
  150.9865  137.7611  158.7933 C   0  0  0  0  0  0  0  0  0  0  0  0
  152.2702  138.0682  158.3985 N   0  0  0  0  0  0  0  0  0  0  0  0
  153.4840  137.9202  159.1869 C   0  0  0  0  0  0  0  0  0  0  0  0
  154.0735  139.2598  159.6952 C   0  0  0  0  0  0  0  0  0  0  0  0
  155.2304  139.5426  158.9275 O   0  0  0  0  0  0  0  0  0  0  0  0
  153.0878  140.4394  159.5439 C   0  0  0  0  0  0  0  0  0  0  0  0
  153.5957  141.7132  160.2424 C   0  0  0  0  0  0  0  0  0  0  0  0
  153.8794  141.4421  161.6094 O   0  0  0  0  0  0  0  0  0  0  0  0
  154.9188  140.4854  161.7745 C   0  0  0  0  0  0  0  0  0  0  0  0
  154.4906  139.1344  161.1743 C   0  0  0  0  0  0  0  0  0  0  0  0
  148.2181  139.8580  155.7768 C   0  0  1  0  0  0  0  0  0  0  0  0
  148.7519  141.3141  155.7536 C   0  0  0  0  0  0  0  0  0  0  0  0
  147.4799  141.2204  158.2548 H   0  0  0  0  0  0  0  0  0  0  0  0
  147.2139  142.9633  158.3268 H   0  0  0  0  0  0  0  0  0  0  0  0
  148.8533  142.3285  158.2672 H   0  0  0  0  0  0  0  0  0  0  0  0
  145.7871  142.8900  156.3773 H   0  0  0  0  0  0  0  0  0  0  0  0
  146.4953  142.5816  154.8121 H   0  0  0  0  0  0  0  0  0  0  0  0
  145.7007  140.4432  156.8575 H   0  0  0  0  0  0  0  0  0  0  0  0
  144.8981  140.7783  155.3442 H   0  0  0  0  0  0  0  0  0  0  0  0
  146.8994  140.1231  154.0685 H   0  0  0  0  0  0  0  0  0  0  0  0
  146.6622  136.5862  154.5087 H   0  0  0  0  0  0  0  0  0  0  0  0
  147.1583  137.8531  153.4029 H   0  0  0  0  0  0  0  0  0  0  0  0
  148.4611  137.1509  156.0909 H   0  0  0  0  0  0  0  0  0  0  0  0
  149.1674  136.8827  154.5050 H   0  0  0  0  0  0  0  0  0  0  0  0
  153.3603  139.6630  154.3466 H   0  0  0  0  0  0  0  0  0  0  0  0
  150.7578  137.3683  159.7734 H   0  0  0  0  0  0  0  0  0  0  0  0
  153.2558  137.2690  160.0318 H   0  0  0  0  0  0  0  0  0  0  0  0
  154.2209  137.3863  158.5848 H   0  0  0  0  0  0  0  0  0  0  0  0
  155.9191  138.9520  159.1921 H   0  0  0  0  0  0  0  0  0  0  0  0
  152.8957  140.6543  158.4922 H   0  0  0  0  0  0  0  0  0  0  0  0
  152.1277  140.1632  159.9819 H   0  0  0  0  0  0  0  0  0  0  0  0
  154.4838  142.1065  159.7454 H   0  0  0  0  0  0  0  0  0  0  0  0
  152.8358  142.4930  160.1901 H   0  0  0  0  0  0  0  0  0  0  0  0
  155.8392  140.8478  161.3140 H   0  0  0  0  0  0  0  0  0  0  0  0
  155.1236  140.3715  162.8390 H   0  0  0  0  0  0  0  0  0  0  0  0
  153.6498  138.7519  161.7549 H   0  0  0  0  0  0  0  0  0  0  0  0
  155.2939  138.4045  161.2850 H   0  0  0  0  0  0  0  0  0  0  0  0
  148.1205  139.5351  156.8144 H   0  0  0  0  0  0  0  0  0  0  0  0
  148.8979  141.6359  154.7215 H   0  0  0  0  0  0  0  0  0  0  0  0
  149.7251  141.3917  156.2399 H   0  0  0  0  0  0  0  0  0  0  0  0
  148.1670  143.1850  156.1999 H   0  0  0  0  0  0  0  0  0  0  0  0
  1  2  1  0  0  0  0
  1 29  1  0  0  0  0
  1 30  1  0  0  0  0
  1 31  1  0  0  0  0
  2 28  1  0  0  0  0
  2  3  1  0  0  0  0
  2 57  1  0  0  0  0
  3  4  1  0  0  0  0
  3 32  1  0  0  0  0
  3 33  1  0  0  0  0
  4  5  1  0  0  0  0
  4 34  1  0  0  0  0
  4 35  1  0  0  0  0
  5 27  1  0  0  0  0
  5  6  1  0  0  0  0
  5 36  1  0  0  0  0
  6  7  1  0  0  0  0
  7  8  1  0  0  0  0
  7 37  1  0  0  0  0
  7 38  1  0  0  0  0
  8  9  1  0  0  0  0
  8 39  1  0  0  0  0
  8 40  1  0  0  0  0
  9 10  1  0  0  0  0
  9 27  1  0  0  0  0
 10 15  1  0  0  0  0
 10 11  2  0  0  0  0
 11 12  1  0  0  0  0
 12 13  2  0  0  0  0
 12 41  1  0  0  0  0
 13 14  1  0  0  0  0
 14 18  1  0  0  0  0
 14 15  2  0  0  0  0
 15 16  1  0  0  0  0
 16 17  2  0  0  0  0
 17 18  1  0  0  0  0
 17 42  1  0  0  0  0
 18 19  1  0  0  0  0
 19 20  1  0  0  0  0
 19 43  1  0  0  0  0
 19 44  1  0  0  0  0
 20 26  1  0  0  0  0
 20 21  1  0  0  0  0
 20 22  1  0  0  0  0
 21 45  1  0  0  0  0
 22 23  1  0  0  0  0
 22 46  1  0  0  0  0
 22 47  1  0  0  0  0
 23 24  1  0  0  0  0
 23 48  1  0  0  0  0
 23 49  1  0  0  0  0
 24 25  1  0  0  0  0
 25 26  1  0  0  0  0
 25 50  1  0  0  0  0
 25 51  1  0  0  0  0
 26 52  1  0  0  0  0
 26 53  1  0  0  0  0
 27 28  1  0  0  0  0
 27 54  1  0  0  0  0
 28 55  1  0  0  0  0
 28 56  1  0  0  0  0
M  CHG  1   2   1
M  END
> <s_m_source_file>
AV-unprocessed.smi

> <i_m_source_file_index>
244

> <i_lp_mmshare_version>
43012

> <i_f3d_flags>
0

> <s_epik_input>
W0NIMl0xW0NIMl1OKFtDSDNdKVtDSDJdW0NAQEhdKFtDQEhdMTIpTihbQ0gyXVtDSDJdTzIpYyhuW2NIXW4zKWMoYzM0KW5bY0hdbjRbQ0gyXUM1KFtPSF0pW0NIMl1bQ0gyXU9bQ0gyXVtDSDJdNQ==

> <s_epik_cmdline>
J2VwaWtfcHl0aG9uJywgJy1waCcsICc3LjAnLCAnLXRuJywgJzgnLCAnLW1hJywgJzIwMCcsICctbWV0YWxfYmluZGluZycsICctaW1hZScsICc8aW5maWxlLm1hZT4nLCAnLW9tYWUnLCAnPG91dGZpbGUubWFlPic=

> <r_lp_tautomer_probability>
1

> <r_epik_Ionization_Penalty>
0.0136215

> <r_epik_Ionization_Penalty_Charging>
0.0131385

> <r_epik_Ionization_Penalty_Neutral>
0.000483022

> <r_epik_State_Penalty>
0.0104001

> <r_epik_Charging_Adjusted_Penalty>
0.0235387

> <i_epik_Tot_Q>
1

> <i_epik_Tot_abs_Q>
1

> <r_epik_Metal_State_Penalty>
0.0104469

> <b_epik_Metal_Only>
0

> <s_lp_Force_Field>
OPLS_2005

> <r_lp_Energy>
43.138

> <b_lp_Chiralities_Consistent>
1

> <s_lp_Variant>
AV-unprocessed.smi:244-2

> <Gold.Version>
5.8.1

> <Gold.Id.Protein>
6NUR|6NUR_protein|mol2

> <Gold.PLP.Fitness>
41.9395

> <Gold.PLP.PLP>
-31.7547

> <Gold.PLP.part.hbond>
-4.0000

> <Gold.PLP.part.metal>
0.0000

> <Gold.PLP.part.buried>
-5.0858

> <Gold.PLP.part.nonpolar>
-22.6602

> <Gold.PLP.part.repulsive>
0.2419

> <Gold.PLP.ligand.clash>
0.0000

> <Gold.PLP.ligand.torsion>
1.2077

> <Gold.PLP.Chemscore.Hbond>
4.1600

> <Gold.PLP.Chemscore.CHOScore>
0.0000

> <Gold.PLP.Chemscore.Metal>
0.0000

> <Gold.Chemscore.Hbonds>
donor molecule, donor type, donor heavy atom, donor atom, acceptor molecule, acceptor atom, score
      L1  H     2    57       P1  8028  2.00
      P1  H  7989  7998       L1    11  0.60
      P1  H  7997  8008       L1    21  0.56
      P1  H  7997  8009       L1    13  0.95

> <Gold.PLP.Chemscore.Internal.Correction>
0.1202

> <Gold.Rescore>
     Score         DG    S(hbond)    S(metal)    S(lipo)     H(rot)  DE(clash)    DE(int)     intcor
     13.96     -15.27       2.03        0.00      71.45       2.09       0.08       1.23       ----

> <Gold.Chemscore.Fitness>
13.9573

> <Gold.Chemscore.DG>
-15.2652

> <Gold.Chemscore.ZeroCoef>
-5.4800

> <Gold.Chemscore.Hbond>
2.0296

> <Gold.Chemscore.Metal>
0.0000

> <Gold.Chemscore.Lipo>
71.4471

> <Gold.Chemscore.Internal_Hbond>
0.0000

> <Gold.Chemscore.DEClash>
0.0756

> <Gold.Chemscore.DEInternal>
1.2323

> <Gold.Chemscore.Rot>
2.0911

> <Gold.Chemscore.Internal.Correction>
   9.000000E+99

> <Gold.Chemscore.Hbonds>
donor molecule, donor type, donor heavy atom, donor atom, acceptor molecule, acceptor atom, score
      L1  H     2    57       P1  8028  0.55
      P1  H  7989  7998       L1    11  0.04
      P1  H  7997  8008       L1    21  0.17
      P1  H  7997  8009       L1    13  0.21

> <Gold.Chemscore.Hbond.Weighted>
-6.7790

> <Gold.Chemscore.Metal.Weighted>
-0.0000

> <Gold.Chemscore.Lipo.Weighted>
-8.3593

> <Gold.Chemscore.Internal_Hbond.Weighted>
0.0000

> <Gold.Chemscore.DEClash.Weighted>
0.0756

> <Gold.Chemscore.DEInternal.Weighted>
1.2323

> <Gold.Chemscore.Rot.Weighted>
5.3531

> <Gold.Chemscore.Internal.Correction.Weighted>
   9.000000E+99

> <Gold.Protein.RotatedTorsions>
[ 6907 6896 6895 6894 ] final   73.47 input  -60.11 | X-H torsion
[ 7974 7965 7964 7962 ] final   17.29 input  175.53 | X-H torsion
[ 8008 7997 7996 7995 ] final -166.12 input   59.86 | X-H torsion
[ 10167 10162 10161 10158 ] final   36.21 input  -65.29 | X-H torsion
[ 10718 10713 10712 10709 ] final  147.88 input   66.30 | X-H torsion
[ 10763 10752 10751 10750 ] final  -65.90 input  -60.55 | X-H torsion
[ 11005 11000 10999 10996 ] final -139.45 input  -57.11 | X-H torsion

> <Gold.Protein.ActiveResidues>
 VAL166  LYS551  ARG553  GLY616  TRP617  ASP618  TYR619  PRO620  LYS621  CYS622 
 ASP623  PHE694  ASN695  SER759  ASP760  ASP761  ALA762  ILE779  LEU786  VAL792 
 PHE793  MET794  SER795  GLU796  ALA797  LYS798  CYS799  TRP800  GLU811  SER814 

> <Gold.Protein.RotatedAtoms>
  152.4925  134.4417  159.9545 H   0  0  0  0  0  0  0  0  0  0  0  0  # atno 6907 bound_to 6896
  151.4401  133.3639  159.2788 H   0  0  0  0  0  0  0  0  0  0  0  0  # atno 6908 bound_to 6896
  150.9093  134.8533  159.7474 H   0  0  0  0  0  0  0  0  0  0  0  0  # atno 6909 bound_to 6896
  146.2223  139.8623  142.8602 H   0  0  0  0  0  0  0  0  0  0  0  0  # atno 7974 bound_to 7965
  155.8594  140.0975  157.1623 H   0  0  0  0  0  0  0  0  0  0  0  0  # atno 8008 bound_to 7997
  154.3989  140.1368  156.4004 H   0  0  0  0  0  0  0  0  0  0  0  0  # atno 8009 bound_to 7997
  155.7874  140.3457  155.5333 H   0  0  0  0  0  0  0  0  0  0  0  0  # atno 8010 bound_to 7997
  140.4149  144.1541  150.6142 H   0  0  0  0  0  0  0  0  0  0  0  0  # atno 10167 bound_to 10162
  157.3156  131.0895  151.1282 H   0  0  0  0  0  0  0  0  0  0  0  0  # atno 10718 bound_to 10713
  154.3519  135.6135  153.5647 H   0  0  0  0  0  0  0  0  0  0  0  0  # atno 10763 bound_to 10752
  152.9798  135.5794  154.4734 H   0  0  0  0  0  0  0  0  0  0  0  0  # atno 10764 bound_to 10752
  154.4456  135.2851  155.1794 H   0  0  0  0  0  0  0  0  0  0  0  0  # atno 10765 bound_to 10752
  140.8518  134.2276  157.4756 H   0  0  0  0  0  0  0  0  0  0  0  0  # atno 11005 bound_to 11000
  145.2692  141.0103  143.3782 LP  0  0  0  0  0  0  0  0  0  0  0  0  # atno 17320 bound_to 7965
  144.9237  139.4381  143.6529 LP  0  0  0  0  0  0  0  0  0  0  0  0  # atno 17321 bound_to 7965
  140.4598  143.2453  151.9235 LP  0  0  0  0  0  0  0  0  0  0  0  0  # atno 17342 bound_to 10162
  139.4782  144.5479  151.8430 LP  0  0  0  0  0  0  0  0  0  0  0  0  # atno 17343 bound_to 10162
  157.2587  130.6648  149.5964 LP  0  0  0  0  0  0  0  0  0  0  0  0  # atno 17370 bound_to 10713
  155.9681  130.4515  150.5739 LP  0  0  0  0  0  0  0  0  0  0  0  0  # atno 17371 bound_to 10713
  139.8704  134.9687  156.4640 LP  0  0  0  0  0  0  0  0  0  0  0  0  # atno 17394 bound_to 11000
  140.8781  133.7938  155.9437 LP  0  0  0  0  0  0  0  0  0  0  0  0  # atno 17395 bound_to 11000

$$$$
