AV-unprocessed.smi:2567|AV-procd|sdf|10087|dock9
  -GOLD-   2272014113D 1   1.00000     0.00000
 Structure written by MMmdl.
 32 33  0  0  0  0  0  0  0  0  2 V2000
  153.4099  142.9999  159.7344 C   0  0  0  0  0  0  0  0  0  0  0  0
  152.2185  143.7966  159.1764 C   0  0  0  0  0  0  0  0  0  0  0  0
  151.6324  144.7085  160.2732 C   0  0  0  0  0  0  0  0  0  0  0  0
  152.6870  144.7070  158.0235 C   0  0  0  0  0  0  0  0  0  0  0  0
  151.1491  142.8310  158.6756 C   0  0  0  0  0  0  0  0  0  0  0  0
  149.8517  142.8312  159.0389 N   0  5  0  0  0  0  0  0  0  0  0  0
  149.1795  141.9499  158.3277 N   0  0  0  0  0  0  0  0  0  0  0  0
  150.0760  141.4158  157.4856 C   0  0  0  0  0  0  0  0  0  0  0  0
  149.7498  140.3800  156.4280 C   0  0  1  0  0  0  0  0  0  0  0  0
  149.8469  140.9857  155.0128 C   0  0  0  0  0  0  0  0  0  0  0  0
  149.5437  139.9780  153.9963 N   0  0  0  0  0  0  0  0  0  0  0  0
  150.3940  138.7997  154.1492 C   0  0  0  0  0  0  0  0  0  0  0  0
  150.2795  138.2423  155.5780 C   0  0  0  0  0  0  0  0  0  0  0  0
  150.6271  139.2583  156.5117 O   0  0  0  0  0  0  0  0  0  0  0  0
  151.2820  141.9731  157.6660 N   0  0  0  0  0  0  0  0  0  0  0  0
  154.1927  143.6616  160.1061 H   0  0  0  0  0  0  0  0  0  0  0  0
  153.8515  142.3626  158.9676 H   0  0  0  0  0  0  0  0  0  0  0  0
  153.1021  142.3562  160.5591 H   0  0  0  0  0  0  0  0  0  0  0  0
  151.2987  144.1318  161.1364 H   0  0  0  0  0  0  0  0  0  0  0  0
  150.7750  145.2724  159.9039 H   0  0  0  0  0  0  0  0  0  0  0  0
  152.3710  145.4268  160.6300 H   0  0  0  0  0  0  0  0  0  0  0  0
  153.4346  145.4246  158.3624 H   0  0  0  0  0  0  0  0  0  0  0  0
  151.8551  145.2714  157.6009 H   0  0  0  0  0  0  0  0  0  0  0  0
  153.1364  144.1294  157.2150 H   0  0  0  0  0  0  0  0  0  0  0  0
  148.7285  140.0409  156.6128 H   0  0  0  0  0  0  0  0  0  0  0  0
  149.1601  141.8271  154.9177 H   0  0  0  0  0  0  0  0  0  0  0  0
  150.8506  141.3825  154.8531 H   0  0  0  0  0  0  0  0  0  0  0  0
  150.1102  138.0363  153.4245 H   0  0  0  0  0  0  0  0  0  0  0  0
  151.4322  139.0608  153.9408 H   0  0  0  0  0  0  0  0  0  0  0  0
  149.2718  137.8732  155.7761 H   0  0  0  0  0  0  0  0  0  0  0  0
  150.9582  137.3992  155.7060 H   0  0  0  0  0  0  0  0  0  0  0  0
  149.6792  140.3780  153.0738 H   0  0  0  0  0  0  0  0  0  0  0  0
  1  2  1  0  0  0  0
  1 16  1  0  0  0  0
  1 17  1  0  0  0  0
  1 18  1  0  0  0  0
  2  3  1  0  0  0  0
  2  4  1  0  0  0  0
  2  5  1  0  0  0  0
  3 19  1  0  0  0  0
  3 20  1  0  0  0  0
  3 21  1  0  0  0  0
  4 22  1  0  0  0  0
  4 23  1  0  0  0  0
  4 24  1  0  0  0  0
  5 15  2  0  0  0  0
  5  6  1  0  0  0  0
  6  7  1  0  0  0  0
  7  8  2  0  0  0  0
  8  9  1  0  0  0  0
  8 15  1  0  0  0  0
  9 14  1  0  0  0  0
  9 10  1  0  0  0  0
  9 25  1  0  0  0  0
 10 11  1  0  0  0  0
 10 26  1  0  0  0  0
 10 27  1  0  0  0  0
 11 12  1  0  0  0  0
 11 32  1  0  0  0  0
 12 13  1  0  0  0  0
 12 28  1  0  0  0  0
 12 29  1  0  0  0  0
 13 14  1  0  0  0  0
 13 30  1  0  0  0  0
 13 31  1  0  0  0  0
M  CHG  1   6  -1
M  END
> <s_m_source_file>
AV-unprocessed.smi

> <i_m_source_file_index>
2567

> <i_lp_mmshare_version>
43012

> <i_f3d_flags>
0

> <s_epik_input>
W0NIM11DKFtDSDNdKShbQ0gzXSljMW5bbkhdYyhuMSlbQ0BASF0yW0NIMl1bTkhdW0NIMl1bQ0gyXU8y

> <s_epik_cmdline>
J2VwaWtfcHl0aG9uJywgJy1waCcsICc3LjAnLCAnLXRuJywgJzgnLCAnLW1hJywgJzIwMCcsICctbWV0YWxfYmluZGluZycsICctaW1hZScsICc8aW5maWxlLm1hZT4nLCAnLW9tYWUnLCAnPG91dGZpbGUubWFlPic=

> <r_lp_tautomer_probability>
0.948284

> <r_epik_Ionization_Penalty>
17.5852

> <r_epik_Ionization_Penalty_Charging>
16.0119

> <r_epik_Ionization_Penalty_Neutral>
1.5733

> <r_epik_State_Penalty>
6.64574

> <r_epik_Charging_Adjusted_Penalty>
22.6576

> <i_epik_Tot_Q>
-1

> <i_epik_Tot_abs_Q>
1

> <r_epik_Metal_State_Penalty>
2.89273

> <b_epik_Metal_Only>
1

> <s_lp_Force_Field>
OPLS_2005

> <r_lp_Energy>
12.7072

> <b_lp_Chiralities_Consistent>
1

> <s_lp_Variant>
AV-unprocessed.smi:2567-12

> <Gold.Version>
5.8.1

> <Gold.Id.Protein>
6NUR|6NUR_protein|mol2

> <Gold.PLP.Fitness>
33.5362

> <Gold.PLP.PLP>
-30.9946

> <Gold.PLP.part.hbond>
-2.3024

> <Gold.PLP.part.metal>
0.0000

> <Gold.PLP.part.buried>
-4.3415

> <Gold.PLP.part.nonpolar>
-24.8875

> <Gold.PLP.part.repulsive>
0.2500

> <Gold.PLP.ligand.clash>
0.0000

> <Gold.PLP.ligand.torsion>
0.2136

> <Gold.PLP.Chemscore.Hbond>
0.9280

> <Gold.PLP.Chemscore.CHOScore>
0.0000

> <Gold.PLP.Chemscore.Metal>
0.0000

> <Gold.Chemscore.Hbonds>
donor molecule, donor type, donor heavy atom, donor atom, acceptor molecule, acceptor atom, score
      L1  H    11    32       P1  7957  0.91

> <Gold.PLP.Chemscore.Internal.Correction>
0.1847

> <Gold.Rescore>
     Score         DG    S(hbond)    S(metal)    S(lipo)     H(rot)  DE(clash)    DE(int)     intcor
     13.98     -14.13       0.99        0.00      72.58       1.23       0.02       0.13       ----

> <Gold.Chemscore.Fitness>
13.9797

> <Gold.Chemscore.DG>
-14.1295

> <Gold.Chemscore.ZeroCoef>
-5.4800

> <Gold.Chemscore.Hbond>
0.9886

> <Gold.Chemscore.Metal>
0.0000

> <Gold.Chemscore.Lipo>
72.5814

> <Gold.Chemscore.Internal_Hbond>
0.0000

> <Gold.Chemscore.DEClash>
0.0186

> <Gold.Chemscore.DEInternal>
0.1312

> <Gold.Chemscore.Rot>
1.2283

> <Gold.Chemscore.Internal.Correction>
   9.000000E+99

> <Gold.Chemscore.Hbonds>
donor molecule, donor type, donor heavy atom, donor atom, acceptor molecule, acceptor atom, score
      L1  H    11    32       P1  7957  0.89

> <Gold.Chemscore.Hbond.Weighted>
-3.3019

> <Gold.Chemscore.Metal.Weighted>
-0.0000

> <Gold.Chemscore.Lipo.Weighted>
-8.4920

> <Gold.Chemscore.Internal_Hbond.Weighted>
0.0000

> <Gold.Chemscore.DEClash.Weighted>
0.0186

> <Gold.Chemscore.DEInternal.Weighted>
0.1312

> <Gold.Chemscore.Rot.Weighted>
3.1444

> <Gold.Chemscore.Internal.Correction.Weighted>
   9.000000E+99

> <Gold.Protein.RotatedTorsions>
[ 6907 6896 6895 6894 ] final  -70.03 input  -60.11 | X-H torsion
[ 7974 7965 7964 7962 ] final -150.98 input  175.53 | X-H torsion
[ 8008 7997 7996 7995 ] final   63.66 input   59.86 | X-H torsion
[ 10167 10162 10161 10158 ] final  102.89 input  -65.29 | X-H torsion
[ 10718 10713 10712 10709 ] final  -46.16 input   66.30 | X-H torsion
[ 10763 10752 10751 10750 ] final   90.57 input  -60.55 | X-H torsion
[ 11005 11000 10999 10996 ] final  140.25 input  -57.11 | X-H torsion

> <Gold.Protein.ActiveResidues>
 VAL166  LYS551  ARG553  GLY616  TRP617  ASP618  TYR619  PRO620  LYS621  CYS622 
 ASP623  PHE694  ASN695  SER759  ASP760  ASP761  ALA762  ILE779  LEU786  VAL792 
 PHE793  MET794  SER795  GLU796  ALA797  LYS798  CYS799  TRP800  GLU811  SER814 

> <Gold.Protein.RotatedAtoms>
  150.7277  134.5511  159.5794 H   0  0  0  0  0  0  0  0  0  0  0  0  # atno 6907 bound_to 6896
  152.2998  134.7621  160.0369 H   0  0  0  0  0  0  0  0  0  0  0  0  # atno 6908 bound_to 6896
  151.8206  133.3358  159.3619 H   0  0  0  0  0  0  0  0  0  0  0  0  # atno 6909 bound_to 6896
  144.7876  140.4859  143.5795 H   0  0  0  0  0  0  0  0  0  0  0  0  # atno 7974 bound_to 7965
  155.6337  140.3496  155.4691 H   0  0  0  0  0  0  0  0  0  0  0  0  # atno 8008 bound_to 7997
  155.9982  140.1208  157.0596 H   0  0  0  0  0  0  0  0  0  0  0  0  # atno 8009 bound_to 7997
  154.4240  140.1106  156.5646 H   0  0  0  0  0  0  0  0  0  0  0  0  # atno 8010 bound_to 7997
  139.7310  144.7036  151.0722 H   0  0  0  0  0  0  0  0  0  0  0  0  # atno 10167 bound_to 10162
  156.2211  130.4166  149.8992 H   0  0  0  0  0  0  0  0  0  0  0  0  # atno 10718 bound_to 10713
  153.1990  135.4429  155.0243 H   0  0  0  0  0  0  0  0  0  0  0  0  # atno 10763 bound_to 10752
  154.8136  135.3305  154.7241 H   0  0  0  0  0  0  0  0  0  0  0  0  # atno 10764 bound_to 10752
  153.7688  135.6986  153.4966 H   0  0  0  0  0  0  0  0  0  0  0  0  # atno 10765 bound_to 10752
  140.0314  134.9350  157.0669 H   0  0  0  0  0  0  0  0  0  0  0  0  # atno 11005 bound_to 11000
  145.5880  139.1493  143.3198 LP  0  0  0  0  0  0  0  0  0  0  0  0  # atno 17320 bound_to 7965
  146.2114  140.6007  142.9058 LP  0  0  0  0  0  0  0  0  0  0  0  0  # atno 17321 bound_to 7965
  140.7771  143.5043  150.9731 LP  0  0  0  0  0  0  0  0  0  0  0  0  # atno 17342 bound_to 10162
  139.8731  143.7167  152.3164 LP  0  0  0  0  0  0  0  0  0  0  0  0  # atno 17343 bound_to 10162
  156.6638  130.8792  151.3551 LP  0  0  0  0  0  0  0  0  0  0  0  0  # atno 17370 bound_to 10713
  157.7088  130.9416  150.1019 LP  0  0  0  0  0  0  0  0  0  0  0  0  # atno 17371 bound_to 10713
  140.4220  134.1871  155.7165 LP  0  0  0  0  0  0  0  0  0  0  0  0  # atno 17394 bound_to 11000
  141.1833  133.8367  157.1180 LP  0  0  0  0  0  0  0  0  0  0  0  0  # atno 17395 bound_to 11000

$$$$
