AV-unprocessed.smi:1914|AV-procd|sdf|7756|dock5
  -GOLD-   22720 9493D 1   1.00000     0.00000
 Structure written by MMmdl.
 44 45  0  0  0  0  0  0  0  0  2 V2000
  144.5499  136.3905  152.4324 C   0  0  0  0  0  0  0  0  0  0  0  0
  145.8602  135.5953  152.3461 C   0  0  2  0  0  0  0  0  0  0  0  0
  145.6821  134.3075  151.5247 C   0  0  0  0  0  0  0  0  0  0  0  0
  146.9981  133.5211  151.4781 C   0  0  0  0  0  0  0  0  0  0  0  0
  147.5216  133.2411  152.8957 C   0  0  0  0  0  0  0  0  0  0  0  0
  147.6889  134.5021  153.6638 N   0  3  2  0  0  0  0  0  0  0  0  0
  148.3221  134.2703  154.9867 C   0  0  0  0  0  0  0  0  0  0  0  0
  149.7636  134.8119  155.0544 C   0  0  0  0  0  0  0  0  0  0  0  0
  149.8601  136.1444  154.4703 N   0  0  0  0  0  0  0  0  0  0  0  0
  150.8308  137.0312  154.7374 C   0  0  0  0  0  0  0  0  0  0  0  0
  151.7663  136.7932  155.5026 O   0  0  0  0  0  0  0  0  0  0  0  0
  150.7294  138.3834  154.0175 C   0  0  0  0  0  0  0  0  0  0  0  0
  150.7799  139.5333  154.9359 N   0  0  0  0  0  0  0  0  0  0  0  0
  149.6462  140.3688  154.9840 C   0  0  0  0  0  0  0  0  0  0  0  0
  149.5895  141.4426  155.7877 C   0  0  0  0  0  0  0  0  0  0  0  0
  150.7325  141.7338  156.6201 C   0  0  0  0  0  0  0  0  0  0  0  0
  151.8236  140.9435  156.5789 C   0  0  0  0  0  0  0  0  0  0  0  0
  151.8914  139.7706  155.6996 C   0  0  0  0  0  0  0  0  0  0  0  0
  152.8862  139.0461  155.6507 O   0  0  0  0  0  0  0  0  0  0  0  0
  146.4131  135.2634  153.7471 C   0  0  0  0  0  0  0  0  0  0  0  0
  143.7713  135.8185  152.9384 H   0  0  0  0  0  0  0  0  0  0  0  0
  144.1811  136.6482  151.4391 H   0  0  0  0  0  0  0  0  0  0  0  0
  144.6899  137.3215  152.9825 H   0  0  0  0  0  0  0  0  0  0  0  0
  146.5915  136.2236  151.8353 H   0  0  0  0  0  0  0  0  0  0  0  0
  144.9001  133.6877  151.9661 H   0  0  0  0  0  0  0  0  0  0  0  0
  145.3562  134.5459  150.5115 H   0  0  0  0  0  0  0  0  0  0  0  0
  146.8521  132.5824  150.9428 H   0  0  0  0  0  0  0  0  0  0  0  0
  147.7435  134.0850  150.9158 H   0  0  0  0  0  0  0  0  0  0  0  0
  146.8368  132.5777  153.4272 H   0  0  0  0  0  0  0  0  0  0  0  0
  148.4774  132.7202  152.8247 H   0  0  0  0  0  0  0  0  0  0  0  0
  147.7058  134.7054  155.7748 H   0  0  0  0  0  0  0  0  0  0  0  0
  148.3512  133.1970  155.1791 H   0  0  0  0  0  0  0  0  0  0  0  0
  150.1180  134.8309  156.0864 H   0  0  0  0  0  0  0  0  0  0  0  0
  150.4482  134.1692  154.5028 H   0  0  0  0  0  0  0  0  0  0  0  0
  149.1340  136.4159  153.8227 H   0  0  0  0  0  0  0  0  0  0  0  0
  151.5359  138.4383  153.2854 H   0  0  0  0  0  0  0  0  0  0  0  0
  149.8087  138.4188  153.4317 H   0  0  0  0  0  0  0  0  0  0  0  0
  148.8365  140.0869  154.3267 H   0  0  0  0  0  0  0  0  0  0  0  0
  148.7130  142.0738  155.8089 H   0  0  0  0  0  0  0  0  0  0  0  0
  150.7132  142.5899  157.2781 H   0  0  0  0  0  0  0  0  0  0  0  0
  152.6697  141.1776  157.2081 H   0  0  0  0  0  0  0  0  0  0  0  0
  146.5670  136.1934  154.2930 H   0  0  0  0  0  0  0  0  0  0  0  0
  145.6816  134.6846  154.3138 H   0  0  0  0  0  0  0  0  0  0  0  0
  148.3370  135.0675  153.1340 H   0  0  0  0  0  0  0  0  0  0  0  0
  1  2  1  0  0  0  0
  1 21  1  0  0  0  0
  1 22  1  0  0  0  0
  1 23  1  0  0  0  0
  2 20  1  0  0  0  0
  2  3  1  0  0  0  0
  2 24  1  0  0  0  0
  3  4  1  0  0  0  0
  3 25  1  0  0  0  0
  3 26  1  0  0  0  0
  4  5  1  0  0  0  0
  4 27  1  0  0  0  0
  4 28  1  0  0  0  0
  5  6  1  0  0  0  0
  5 29  1  0  0  0  0
  5 30  1  0  0  0  0
  6  7  1  0  0  0  0
  6 20  1  0  0  0  0
  6 44  1  0  0  0  0
  7  8  1  0  0  0  0
  7 31  1  0  0  0  0
  7 32  1  0  0  0  0
  8  9  1  0  0  0  0
  8 33  1  0  0  0  0
  8 34  1  0  0  0  0
  9 10  1  0  0  0  0
  9 35  1  0  0  0  0
 10 11  2  0  0  0  0
 10 12  1  0  0  0  0
 12 13  1  0  0  0  0
 12 36  1  0  0  0  0
 12 37  1  0  0  0  0
 13 18  1  0  0  0  0
 13 14  1  0  0  0  0
 14 15  2  0  0  0  0
 14 38  1  0  0  0  0
 15 16  1  0  0  0  0
 15 39  1  0  0  0  0
 16 17  2  0  0  0  0
 16 40  1  0  0  0  0
 17 18  1  0  0  0  0
 17 41  1  0  0  0  0
 18 19  2  0  0  0  0
 20 42  1  0  0  0  0
 20 43  1  0  0  0  0
M  CHG  1   6   1
M  END
> <s_m_source_file>
AV-unprocessed.smi

> <i_m_source_file_index>
1914

> <i_lp_mmshare_version>
43012

> <i_f3d_flags>
0

> <s_epik_input>
W0NIM11bQ0BASF0xW0NIMl1bQ0gyXVtDSDJdTihbQ0gyXTEpW0NIMl1bQ0gyXVtOSF1DKD1PKVtDSDJdbjJbY0hdW2NIXVtjSF1bY0hdYzI9Tw==

> <s_epik_cmdline>
J2VwaWtfcHl0aG9uJywgJy1waCcsICc3LjAnLCAnLXRuJywgJzgnLCAnLW1hJywgJzIwMCcsICctbWV0YWxfYmluZGluZycsICctaW1hZScsICc8aW5maWxlLm1hZT4nLCAnLW9tYWUnLCAnPG91dGZpbGUubWFlPic=

> <r_lp_tautomer_probability>
1

> <r_epik_Ionization_Penalty>
0.00192477

> <r_epik_Ionization_Penalty_Charging>
0.00192469

> <r_epik_Ionization_Penalty_Neutral>
8.16761e-08

> <r_epik_State_Penalty>
0.00131115

> <r_epik_Charging_Adjusted_Penalty>
0.00323584

> <i_epik_Tot_Q>
1

> <i_epik_Tot_abs_Q>
1

> <r_epik_Metal_State_Penalty>
-0

> <b_epik_Metal_Only>
0

> <s_lp_Force_Field>
OPLS_2005

> <r_lp_Energy>
24.8324

> <b_lp_Chiralities_Consistent>
1

> <s_lp_Variant>
AV-unprocessed.smi:1914-1

> <Gold.Version>
5.8.1

> <Gold.Id.Protein>
6NUR|6NUR_protein|mol2

> <Gold.PLP.Fitness>
49.2620

> <Gold.PLP.PLP>
-37.0496

> <Gold.PLP.part.hbond>
-4.5425

> <Gold.PLP.part.metal>
0.0000

> <Gold.PLP.part.buried>
-2.1438

> <Gold.PLP.part.nonpolar>
-30.0739

> <Gold.PLP.part.repulsive>
0.1187

> <Gold.PLP.ligand.clash>
0.0000

> <Gold.PLP.ligand.torsion>
0.9751

> <Gold.PLP.Chemscore.Hbond>
4.7040

> <Gold.PLP.Chemscore.CHOScore>
0.0000

> <Gold.PLP.Chemscore.Metal>
0.0000

> <Gold.Chemscore.Hbonds>
donor molecule, donor type, donor heavy atom, donor atom, acceptor molecule, acceptor atom, score
      L1  H     6    44       P1  7948  2.00
      L1  H     9    35       P1  7948  0.62
      P1  H  7997  8009       L1    19  1.00
      P1  H 10752 10764       L1    11  1.00

> <Gold.PLP.Chemscore.Internal.Correction>
0.0507

> <Gold.Rescore>
     Score         DG    S(hbond)    S(metal)    S(lipo)     H(rot)  DE(clash)    DE(int)     intcor
     17.80     -20.30       3.47        0.00      68.24       1.86       0.01       2.48       ----

> <Gold.Chemscore.Fitness>
17.8033

> <Gold.Chemscore.DG>
-20.2953

> <Gold.Chemscore.ZeroCoef>
-5.4800

> <Gold.Chemscore.Hbond>
3.4699

> <Gold.Chemscore.Metal>
0.0000

> <Gold.Chemscore.Lipo>
68.2387

> <Gold.Chemscore.Internal_Hbond>
0.0000

> <Gold.Chemscore.DEClash>
0.0090

> <Gold.Chemscore.DEInternal>
2.4830

> <Gold.Chemscore.Rot>
1.8586

> <Gold.Chemscore.Internal.Correction>
   9.000000E+99

> <Gold.Chemscore.Hbonds>
donor molecule, donor type, donor heavy atom, donor atom, acceptor molecule, acceptor atom, score
      L1  H     6    44       P1  7948  0.90
      L1  H     9    35       P1  7948  0.60
      P1  H  7997  8009       L1    19  0.63
      P1  H 10752 10764       L1    11  0.69

> <Gold.Chemscore.Hbond.Weighted>
-11.5895

> <Gold.Chemscore.Metal.Weighted>
-0.0000

> <Gold.Chemscore.Lipo.Weighted>
-7.9839

> <Gold.Chemscore.Internal_Hbond.Weighted>
0.0000

> <Gold.Chemscore.DEClash.Weighted>
0.0090

> <Gold.Chemscore.DEInternal.Weighted>
2.4830

> <Gold.Chemscore.Rot.Weighted>
4.7581

> <Gold.Chemscore.Internal.Correction.Weighted>
   9.000000E+99

> <Gold.Protein.RotatedTorsions>
[ 6907 6896 6895 6894 ] final -126.61 input  -60.11 | X-H torsion
[ 7974 7965 7964 7962 ] final   27.48 input  175.53 | X-H torsion
[ 8008 7997 7996 7995 ] final -135.10 input   59.86 | X-H torsion
[ 10167 10162 10161 10158 ] final   13.39 input  -65.29 | X-H torsion
[ 10718 10713 10712 10709 ] final  140.16 input   66.30 | X-H torsion
[ 10763 10752 10751 10750 ] final  -55.75 input  -60.55 | X-H torsion
[ 11005 11000 10999 10996 ] final -128.05 input  -57.11 | X-H torsion

> <Gold.Protein.ActiveResidues>
 VAL166  LYS551  ARG553  GLY616  TRP617  ASP618  TYR619  PRO620  LYS621  CYS622 
 ASP623  PHE694  ASN695  SER759  ASP760  ASP761  ALA762  ILE779  LEU786  VAL792 
 PHE793  MET794  SER795  GLU796  ALA797  LYS798  CYS799  TRP800  GLU811  SER814 

> <Gold.Protein.RotatedAtoms>
  150.8987  133.7147  159.2884 H   0  0  0  0  0  0  0  0  0  0  0  0  # atno 6907 bound_to 6896
  151.4673  135.1042  159.9751 H   0  0  0  0  0  0  0  0  0  0  0  0  # atno 6908 bound_to 6896
  152.4864  133.8335  159.7171 H   0  0  0  0  0  0  0  0  0  0  0  0  # atno 6909 bound_to 6896
  146.1782  139.7185  142.8919 H   0  0  0  0  0  0  0  0  0  0  0  0  # atno 7974 bound_to 7965
  155.3731  140.0489  157.3045 H   0  0  0  0  0  0  0  0  0  0  0  0  # atno 8008 bound_to 7997
  154.5120  140.2195  155.9101 H   0  0  0  0  0  0  0  0  0  0  0  0  # atno 8009 bound_to 7997
  156.1593  140.3120  155.8785 H   0  0  0  0  0  0  0  0  0  0  0  0  # atno 8010 bound_to 7997
  140.6005  143.8613  150.6961 H   0  0  0  0  0  0  0  0  0  0  0  0  # atno 10167 bound_to 10162
  157.4063  131.1023  151.0500 H   0  0  0  0  0  0  0  0  0  0  0  0  # atno 10718 bound_to 10713
  154.1957  135.6419  153.5072 H   0  0  0  0  0  0  0  0  0  0  0  0  # atno 10763 bound_to 10752
  153.0024  135.5439  154.6368 H   0  0  0  0  0  0  0  0  0  0  0  0  # atno 10764 bound_to 10752
  154.5768  135.2921  155.0745 H   0  0  0  0  0  0  0  0  0  0  0  0  # atno 10765 bound_to 10752
  140.9548  134.1016  157.4027 H   0  0  0  0  0  0  0  0  0  0  0  0  # atno 11005 bound_to 11000
  145.4153  141.0401  143.2994 LP  0  0  0  0  0  0  0  0  0  0  0  0  # atno 17320 bound_to 7965
  144.8270  139.5693  143.6961 LP  0  0  0  0  0  0  0  0  0  0  0  0  # atno 17321 bound_to 7965
  140.2158  143.3847  152.1682 LP  0  0  0  0  0  0  0  0  0  0  0  0  # atno 17342 bound_to 10162
  139.5288  144.7134  151.5131 LP  0  0  0  0  0  0  0  0  0  0  0  0  # atno 17343 bound_to 10162
  157.1480  130.6172  149.5574 LP  0  0  0  0  0  0  0  0  0  0  0  0  # atno 17370 bound_to 10713
  155.9837  130.4859  150.6949 LP  0  0  0  0  0  0  0  0  0  0  0  0  # atno 17371 bound_to 10713
  139.8859  135.0076  156.6463 LP  0  0  0  0  0  0  0  0  0  0  0  0  # atno 17394 bound_to 11000
  140.7551  133.8864  155.8376 LP  0  0  0  0  0  0  0  0  0  0  0  0  # atno 17395 bound_to 11000

$$$$
