AV-unprocessed.smi:213|AV-procd|sdf|1644|dock9
  -GOLD-   2262020 13D 1   1.00000     0.00000
 Structure written by MMmdl.
 58 61  0  0  0  0  0  0  0  0  1 V2000
  143.9875  137.2906  152.4092 C   0  0  0  0  0  0  0  0  0  0  0  0
  145.4682  136.9107  152.6124 C   0  0  1  0  0  0  0  0  0  0  0  0
  146.0299  136.0578  151.4490 C   0  0  0  0  0  0  0  0  0  0  0  0
  145.3999  134.7511  151.2509 N   0  0  0  0  0  0  0  0  0  0  0  0
  146.3759  133.7731  150.7819 C   0  0  0  0  0  0  0  0  0  0  0  0
  145.7508  132.3824  150.5815 C   0  0  0  0  0  0  0  0  0  0  0  0
  144.6614  132.4804  149.6707 O   0  0  0  0  0  0  0  0  0  0  0  0
  143.6576  133.3859  150.1164 C   0  0  0  0  0  0  0  0  0  0  0  0
  144.2693  134.7823  150.3279 C   0  0  0  0  0  0  0  0  0  0  0  0
  146.2680  138.1241  152.8030 N   0  0  0  0  0  0  0  0  0  0  0  0
  146.5478  139.0254  151.6872 C   0  0  0  0  0  0  0  0  0  0  0  0
  146.9124  138.3556  153.9776 C   0  0  0  0  0  0  0  0  0  0  0  0
  146.9132  137.3609  154.9044 N   0  0  0  0  0  0  0  0  0  0  0  0
  147.5384  137.5210  156.0738 C   0  0  0  0  0  0  0  0  0  0  0  0
  148.2107  138.5818  156.5213 N   0  0  0  0  0  0  0  0  0  0  0  0
  148.2023  139.5921  155.6065 C   0  0  0  0  0  0  0  0  0  0  0  0
  147.5847  139.5671  154.3223 C   0  0  0  0  0  0  0  0  0  0  0  0
  147.7791  140.7923  153.6927 N   0  0  0  0  0  0  0  0  0  0  0  0
  148.4753  141.4921  154.5445 C   0  0  0  0  0  0  0  0  0  0  0  0
  148.7683  140.8492  155.7243 N   0  0  0  0  0  0  0  0  0  0  0  0
  149.5118  141.3892  156.8481 C   0  0  0  0  0  0  0  0  0  0  0  0
  150.9519  141.8065  156.4803 C   0  0  1  0  0  0  0  0  0  0  0  0
  150.8599  142.9575  155.6649 O   0  0  0  0  0  0  0  0  0  0  0  0
  151.8584  142.1177  157.6923 C   0  0  2  0  0  0  0  0  0  0  0  0
  151.9073  141.0096  158.7472 C   0  0  0  0  0  0  0  0  0  0  0  0
  152.2842  141.7396  160.0269 C   0  0  0  0  0  0  0  0  0  0  0  0
  152.0315  143.2130  159.7007 C   0  0  0  0  0  0  0  0  0  0  0  0
  151.3470  143.1991  158.4574 O   0  0  0  0  0  0  0  0  0  0  0  0
  143.3417  136.4165  152.3541 H   0  0  0  0  0  0  0  0  0  0  0  0
  143.8361  137.8585  151.4912 H   0  0  0  0  0  0  0  0  0  0  0  0
  143.6280  137.9015  153.2380 H   0  0  0  0  0  0  0  0  0  0  0  0
  145.5090  136.3272  153.5317 H   0  0  0  0  0  0  0  0  0  0  0  0
  146.0086  136.6314  150.5211 H   0  0  0  0  0  0  0  0  0  0  0  0
  147.0877  135.8796  151.6498 H   0  0  0  0  0  0  0  0  0  0  0  0
  146.8123  134.1096  149.8402 H   0  0  0  0  0  0  0  0  0  0  0  0
  147.1966  133.6972  151.4960 H   0  0  0  0  0  0  0  0  0  0  0  0
  146.4899  131.6885  150.1813 H   0  0  0  0  0  0  0  0  0  0  0  0
  145.4063  131.9723  151.5321 H   0  0  0  0  0  0  0  0  0  0  0  0
  142.8608  133.4299  149.3738 H   0  0  0  0  0  0  0  0  0  0  0  0
  143.2124  133.0169  151.0416 H   0  0  0  0  0  0  0  0  0  0  0  0
  143.4889  135.4344  150.7166 H   0  0  0  0  0  0  0  0  0  0  0  0
  144.5835  135.1932  149.3676 H   0  0  0  0  0  0  0  0  0  0  0  0
  147.5967  139.3245  151.6793 H   0  0  0  0  0  0  0  0  0  0  0  0
  145.9329  139.9225  151.7614 H   0  0  0  0  0  0  0  0  0  0  0  0
  146.3367  138.5474  150.7306 H   0  0  0  0  0  0  0  0  0  0  0  0
  147.4933  136.6778  156.7472 H   0  0  0  0  0  0  0  0  0  0  0  0
  148.7848  142.5062  154.3375 H   0  0  0  0  0  0  0  0  0  0  0  0
  148.9589  142.2446  157.2387 H   0  0  0  0  0  0  0  0  0  0  0  0
  149.5276  140.6398  157.6411 H   0  0  0  0  0  0  0  0  0  0  0  0
  151.4146  141.0211  155.8816 H   0  0  0  0  0  0  0  0  0  0  0  0
  150.1576  143.4999  155.9895 H   0  0  0  0  0  0  0  0  0  0  0  0
  152.8698  142.3604  157.3605 H   0  0  0  0  0  0  0  0  0  0  0  0
  150.9205  140.5590  158.8633 H   0  0  0  0  0  0  0  0  0  0  0  0
  152.6097  140.2159  158.4916 H   0  0  0  0  0  0  0  0  0  0  0  0
  151.6726  141.3995  160.8632 H   0  0  0  0  0  0  0  0  0  0  0  0
  153.3305  141.5776  160.2869 H   0  0  0  0  0  0  0  0  0  0  0  0
  151.4425  143.7184  160.4664 H   0  0  0  0  0  0  0  0  0  0  0  0
  152.9746  143.7496  159.5857 H   0  0  0  0  0  0  0  0  0  0  0  0
  1  2  1  0  0  0  0
  1 29  1  0  0  0  0
  1 30  1  0  0  0  0
  1 31  1  0  0  0  0
  2  3  1  0  0  0  0
  2 10  1  0  0  0  0
  2 32  1  0  0  0  0
  3  4  1  0  0  0  0
  3 33  1  0  0  0  0
  3 34  1  0  0  0  0
  4  9  1  0  0  0  0
  4  5  1  0  0  0  0
  5  6  1  0  0  0  0
  5 35  1  0  0  0  0
  5 36  1  0  0  0  0
  6  7  1  0  0  0  0
  6 37  1  0  0  0  0
  6 38  1  0  0  0  0
  7  8  1  0  0  0  0
  8  9  1  0  0  0  0
  8 39  1  0  0  0  0
  8 40  1  0  0  0  0
  9 41  1  0  0  0  0
  9 42  1  0  0  0  0
 10 11  1  0  0  0  0
 10 12  1  0  0  0  0
 11 43  1  0  0  0  0
 11 44  1  0  0  0  0
 11 45  1  0  0  0  0
 12 17  1  0  0  0  0
 12 13  2  0  0  0  0
 13 14  1  0  0  0  0
 14 15  2  0  0  0  0
 14 46  1  0  0  0  0
 15 16  1  0  0  0  0
 16 20  1  0  0  0  0
 16 17  2  0  0  0  0
 17 18  1  0  0  0  0
 18 19  2  0  0  0  0
 19 20  1  0  0  0  0
 19 47  1  0  0  0  0
 20 21  1  0  0  0  0
 21 22  1  0  0  0  0
 21 48  1  0  0  0  0
 21 49  1  0  0  0  0
 22 23  1  0  0  0  0
 22 24  1  0  0  0  0
 22 50  1  0  0  0  0
 23 51  1  0  0  0  0
 24 28  1  0  0  0  0
 24 25  1  0  0  0  0
 24 52  1  0  0  0  0
 25 26  1  0  0  0  0
 25 53  1  0  0  0  0
 25 54  1  0  0  0  0
 26 27  1  0  0  0  0
 26 55  1  0  0  0  0
 26 56  1  0  0  0  0
 27 28  1  0  0  0  0
 27 57  1  0  0  0  0
 27 58  1  0  0  0  0
M  END
> <s_m_source_file>
AV-unprocessed.smi

> <i_m_source_file_index>
213

> <i_lp_mmshare_version>
43012

> <i_f3d_flags>
0

> <s_epik_input>
W0NIMl0xW0NIMl1PW0NIMl1bQ0gyXU4xW0NIMl1bQ0BASF0oW0NIM10pTihbQ0gzXSljKG5bY0hdbjIpYyhjMjMpbltjSF1uM1tDSDJdW0NASF0oW09IXSlbQ0BASF00W0NIMl1bQ0gyXVtDSDJdTzQ=

> <s_epik_cmdline>
J2VwaWtfcHl0aG9uJywgJy1waCcsICc3LjAnLCAnLXRuJywgJzgnLCAnLW1hJywgJzIwMCcsICctbWV0YWxfYmluZGluZycsICctaW1hZScsICc8aW5maWxlLm1hZT4nLCAnLW9tYWUnLCAnPG91dGZpbGUubWFlPic=

> <r_lp_tautomer_probability>
1

> <r_epik_Ionization_Penalty>
0.423322

> <r_epik_Ionization_Penalty_Charging>
0

> <r_epik_Ionization_Penalty_Neutral>
0.423322

> <r_epik_State_Penalty>
0.569486

> <r_epik_Charging_Adjusted_Penalty>
0.569486

> <i_epik_Tot_Q>
0

> <i_epik_Tot_abs_Q>
0

> <r_epik_Metal_State_Penalty>
0.568671

> <b_epik_Metal_Only>
0

> <s_lp_Force_Field>
OPLS_2005

> <r_lp_Energy>
52.699

> <b_lp_Chiralities_Consistent>
1

> <s_lp_Variant>
AV-unprocessed.smi:213-12

> <Gold.Version>
5.8.1

> <Gold.Id.Protein>
6NUR|6NUR_protein|mol2

> <Gold.PLP.Fitness>
41.4621

> <Gold.PLP.PLP>
-36.6571

> <Gold.PLP.part.hbond>
-0.5941

> <Gold.PLP.part.metal>
0.0000

> <Gold.PLP.part.buried>
-1.3494

> <Gold.PLP.part.nonpolar>
-36.0019

> <Gold.PLP.part.repulsive>
0.5930

> <Gold.PLP.ligand.clash>
0.0000

> <Gold.PLP.ligand.torsion>
0.6891

> <Gold.PLP.Chemscore.Hbond>
0.9760

> <Gold.PLP.Chemscore.CHOScore>
1.0000

> <Gold.PLP.Chemscore.Metal>
0.0000

> <Gold.Chemscore.Hbonds>
donor molecule, donor type, donor heavy atom, donor atom, acceptor molecule, acceptor atom, score
      L1  H    23    51       P1  8028  0.96
      L1  C    19    47       P1  8028  0.93

> <Gold.PLP.Chemscore.Internal.Correction>
0.2553

> <Gold.Rescore>
     Score         DG    S(hbond)    S(metal)    S(lipo)     H(rot)  DE(clash)    DE(int)     intcor
      9.84     -13.38       0.91        0.00     101.45       2.74       1.61       1.92       ----

> <Gold.Chemscore.Fitness>
9.8385

> <Gold.Chemscore.DG>
-13.3771

> <Gold.Chemscore.ZeroCoef>
-5.4800

> <Gold.Chemscore.Hbond>
0.9090

> <Gold.Chemscore.Metal>
0.0000

> <Gold.Chemscore.Lipo>
101.4503

> <Gold.Chemscore.Internal_Hbond>
0.0000

> <Gold.Chemscore.DEClash>
1.6143

> <Gold.Chemscore.DEInternal>
1.9243

> <Gold.Chemscore.Rot>
2.7378

> <Gold.Chemscore.Internal.Correction>
   9.000000E+99

> <Gold.Chemscore.Hbonds>
donor molecule, donor type, donor heavy atom, donor atom, acceptor molecule, acceptor atom, score
      L1  H    23    51       P1  8028  0.92

> <Gold.Chemscore.Hbond.Weighted>
-3.0361

> <Gold.Chemscore.Metal.Weighted>
-0.0000

> <Gold.Chemscore.Lipo.Weighted>
-11.8697

> <Gold.Chemscore.Internal_Hbond.Weighted>
0.0000

> <Gold.Chemscore.DEClash.Weighted>
1.6143

> <Gold.Chemscore.DEInternal.Weighted>
1.9243

> <Gold.Chemscore.Rot.Weighted>
7.0087

> <Gold.Chemscore.Internal.Correction.Weighted>
   9.000000E+99

> <Gold.Protein.RotatedTorsions>
[ 6907 6896 6895 6894 ] final -154.23 input  -60.11 | X-H torsion
[ 7974 7965 7964 7962 ] final  -13.01 input  175.53 | X-H torsion
[ 8008 7997 7996 7995 ] final  -78.82 input   59.86 | X-H torsion
[ 10167 10162 10161 10158 ] final  108.45 input  -65.29 | X-H torsion
[ 10718 10713 10712 10709 ] final   17.62 input   66.30 | X-H torsion
[ 10763 10752 10751 10750 ] final    5.38 input  -60.55 | X-H torsion
[ 11005 11000 10999 10996 ] final   31.56 input  -57.11 | X-H torsion

> <Gold.Protein.ActiveResidues>
 VAL166  LYS551  ARG553  GLY616  TRP617  ASP618  TYR619  PRO620  LYS621  CYS622 
 ASP623  PHE694  ASN695  SER759  ASP760  ASP761  ALA762  ILE779  LEU786  VAL792 
 PHE793  MET794  SER795  GLU796  ALA797  LYS798  CYS799  TRP800  GLU811  SER814 

> <Gold.Protein.RotatedAtoms>
  151.2543  133.4334  159.2612 H   0  0  0  0  0  0  0  0  0  0  0  0  # atno 6907 bound_to 6896
  151.0588  134.9723  159.8260 H   0  0  0  0  0  0  0  0  0  0  0  0  # atno 6908 bound_to 6896
  152.5395  134.2495  159.8946 H   0  0  0  0  0  0  0  0  0  0  0  0  # atno 6909 bound_to 6896
  146.2130  140.3141  142.8385 H   0  0  0  0  0  0  0  0  0  0  0  0  # atno 7974 bound_to 7965
  154.5725  140.0688  156.8986 H   0  0  0  0  0  0  0  0  0  0  0  0  # atno 8008 bound_to 7997
  155.2608  140.3358  155.4255 H   0  0  0  0  0  0  0  0  0  0  0  0  # atno 8009 bound_to 7997
  156.2129  140.1766  156.7639 H   0  0  0  0  0  0  0  0  0  0  0  0  # atno 8010 bound_to 7997
  139.6845  144.7115  151.1456 H   0  0  0  0  0  0  0  0  0  0  0  0  # atno 10167 bound_to 10162
  157.0846  130.6402  149.5834 H   0  0  0  0  0  0  0  0  0  0  0  0  # atno 10718 bound_to 10713
  153.2601  135.6922  153.7588 H   0  0  0  0  0  0  0  0  0  0  0  0  # atno 10763 bound_to 10752
  153.6650  135.3354  155.3138 H   0  0  0  0  0  0  0  0  0  0  0  0  # atno 10764 bound_to 10752
  154.8427  135.4486  154.1588 H   0  0  0  0  0  0  0  0  0  0  0  0  # atno 10765 bound_to 10752
  140.2826  134.2955  155.7796 H   0  0  0  0  0  0  0  0  0  0  0  0  # atno 11005 bound_to 11000
  144.8967  140.7592  143.5893 LP  0  0  0  0  0  0  0  0  0  0  0  0  # atno 17320 bound_to 7965
  145.3065  139.1832  143.4661 LP  0  0  0  0  0  0  0  0  0  0  0  0  # atno 17321 bound_to 7965
  140.7663  143.5650  150.9058 LP  0  0  0  0  0  0  0  0  0  0  0  0  # atno 17342 bound_to 10162
  139.9324  143.6478  152.3073 LP  0  0  0  0  0  0  0  0  0  0  0  0  # atno 17343 bound_to 10162
  155.9914  130.4969  150.7298 LP  0  0  0  0  0  0  0  0  0  0  0  0  # atno 17370 bound_to 10713
  157.4771  131.0899  151.0577 LP  0  0  0  0  0  0  0  0  0  0  0  0  # atno 17371 bound_to 10713
  141.2160  133.7535  156.9504 LP  0  0  0  0  0  0  0  0  0  0  0  0  # atno 17394 bound_to 11000
  140.1269  134.9381  157.2282 LP  0  0  0  0  0  0  0  0  0  0  0  0  # atno 17395 bound_to 11000

$$$$
