AV-unprocessed.smi:3150|AV-procd|sdf|12011|dock6
  -GOLD-   2272017423D 1   1.00000     0.00000
 Structure written by MMmdl.
 32 33  0  0  0  0  0  0  0  0  2 V2000
  152.2384  138.8688  155.1354 C   0  0  0  0  0  0  0  0  0  0  0  0
  150.9992  139.5899  155.6828 C   0  0  2  0  0  0  0  0  0  0  0  0
  150.2399  140.0542  154.5698 O   0  0  0  0  0  0  0  0  0  0  0  0
  148.8656  140.3124  154.8416 C   0  0  0  0  0  0  0  0  0  0  0  0
  148.2450  141.1738  153.7572 C   0  0  0  0  0  0  0  0  0  0  0  0
  147.0580  142.0681  154.0506 C   0  0  0  0  0  0  0  0  0  0  0  0
  146.8788  140.8460  153.1914 C   0  0  0  0  0  0  0  0  0  0  0  0
  151.4082  140.7677  156.5827 C   0  0  0  0  0  0  0  0  0  0  0  0
  150.8527  141.8573  156.4162 O   0  0  0  0  0  0  0  0  0  0  0  0
  152.3937  140.4058  157.4973 N   0  0  0  0  0  0  0  0  0  0  0  0
  152.5959  141.0306  158.6253 C   0  0  0  0  0  0  0  0  0  0  0  0
  151.8376  142.1391  159.0412 N   0  0  0  0  0  0  0  0  0  0  0  0
  152.0553  142.7947  160.2343 C   0  0  0  0  0  0  0  0  0  0  0  0
  153.0140  142.4088  161.0776 C   0  0  0  0  0  0  0  0  0  0  0  0
  153.8410  141.2732  160.7243 C   0  0  0  0  0  0  0  0  0  0  0  0
  153.6667  140.5689  159.5272 C   0  0  0  0  0  0  0  0  0  0  0  0
  154.4052  139.5918  159.2631 O   0  5  0  0  0  0  0  0  0  0  0  0
  152.8569  138.4762  155.9434 H   0  0  0  0  0  0  0  0  0  0  0  0
  152.8561  139.5358  154.5325 H   0  0  0  0  0  0  0  0  0  0  0  0
  151.9482  138.0279  154.5051 H   0  0  0  0  0  0  0  0  0  0  0  0
  150.4025  138.8689  156.2458 H   0  0  0  0  0  0  0  0  0  0  0  0
  148.3148  139.3729  154.8972 H   0  0  0  0  0  0  0  0  0  0  0  0
  148.7413  140.8231  155.7969 H   0  0  0  0  0  0  0  0  0  0  0  0
  148.9698  141.5657  153.0463 H   0  0  0  0  0  0  0  0  0  0  0  0
  146.6328  142.0446  155.0520 H   0  0  0  0  0  0  0  0  0  0  0  0
  147.0281  143.0370  153.5570 H   0  0  0  0  0  0  0  0  0  0  0  0
  146.7282  141.0003  152.1250 H   0  0  0  0  0  0  0  0  0  0  0  0
  146.3361  140.0055  153.6197 H   0  0  0  0  0  0  0  0  0  0  0  0
  151.3960  143.6295  160.4201 H   0  0  0  0  0  0  0  0  0  0  0  0
  153.1716  142.9339  162.0079 H   0  0  0  0  0  0  0  0  0  0  0  0
  154.6141  140.9693  161.4153 H   0  0  0  0  0  0  0  0  0  0  0  0
  151.0915  142.4986  158.4644 H   0  0  0  0  0  0  0  0  0  0  0  0
  1  2  1  0  0  0  0
  1 18  1  0  0  0  0
  1 19  1  0  0  0  0
  1 20  1  0  0  0  0
  2  3  1  0  0  0  0
  2  8  1  0  0  0  0
  2 21  1  0  0  0  0
  3  4  1  0  0  0  0
  4  5  1  0  0  0  0
  4 22  1  0  0  0  0
  4 23  1  0  0  0  0
  5  7  1  0  0  0  0
  5  6  1  0  0  0  0
  5 24  1  0  0  0  0
  6  7  1  0  0  0  0
  6 25  1  0  0  0  0
  6 26  1  0  0  0  0
  7 27  1  0  0  0  0
  7 28  1  0  0  0  0
  8  9  2  0  0  0  0
  8 10  1  0  0  0  0
 10 11  2  0  0  0  0
 11 16  1  0  0  0  0
 11 12  1  0  0  0  0
 12 32  1  0  0  0  0
 12 13  1  0  0  0  0
 13 29  1  0  0  0  0
 13 14  2  0  0  0  0
 14 30  1  0  0  0  0
 14 15  1  0  0  0  0
 15 16  2  0  0  0  0
 15 31  1  0  0  0  0
 16 17  1  0  0  0  0
M  CHG  1  17  -1
M  END
> <s_m_source_file>
AV-unprocessed.smi

> <i_m_source_file_index>
3150

> <i_lp_mmshare_version>
43012

> <i_f3d_flags>
0

> <s_epik_input>
W0NIMl0xW0NIMl1bQ0hdMVtDSDJdT1tDQEBIXShbQ0gzXSlDKD1PKVtOSF1jMm5bY0hdW2NIXVtjSF1jMltPSF0=

> <s_epik_cmdline>
J2VwaWtfcHl0aG9uJywgJy1waCcsICc3LjAnLCAnLXRuJywgJzgnLCAnLW1hJywgJzIwMCcsICctbWV0YWxfYmluZGluZycsICctaW1hZScsICc8aW5maWxlLm1hZT4nLCAnLW9tYWUnLCAnPG91dGZpbGUubWFlPic=

> <r_epik_Ionization_Penalty>
0.784632

> <r_epik_Ionization_Penalty_Charging>
0.784632

> <r_epik_Ionization_Penalty_Neutral>
7.02258e-13

> <r_epik_State_Penalty>
1.43154

> <r_epik_Charging_Adjusted_Penalty>
2.21617

> <i_epik_Tot_Q>
-1

> <i_epik_Tot_abs_Q>
1

> <r_epik_Metal_State_Penalty>
1.39244

> <b_epik_Metal_Only>
0

> <s_lp_Force_Field>
OPLS_2005

> <r_lp_Energy>
43.7392

> <b_lp_Chiralities_Consistent>
1

> <s_lp_Variant>
AV-unprocessed.smi:3150-5

> <Gold.Version>
5.8.1

> <Gold.Id.Protein>
6NUR|6NUR_protein|mol2

> <Gold.PLP.Fitness>
44.9655

> <Gold.PLP.PLP>
-37.7661

> <Gold.PLP.part.hbond>
-3.0000

> <Gold.PLP.part.metal>
0.0000

> <Gold.PLP.part.buried>
-2.0937

> <Gold.PLP.part.nonpolar>
-29.8685

> <Gold.PLP.part.repulsive>
0.2462

> <Gold.PLP.ligand.clash>
0.0000

> <Gold.PLP.ligand.torsion>
1.1742

> <Gold.PLP.Chemscore.Hbond>
3.0000

> <Gold.PLP.Chemscore.CHOScore>
0.0000

> <Gold.PLP.Chemscore.Metal>
0.0000

> <Gold.Chemscore.Hbonds>
donor molecule, donor type, donor heavy atom, donor atom, acceptor molecule, acceptor atom, score
      P1  H  7989  7998       L1     3  1.00
      P1  H  7997  8009       L1    17  1.72

> <Gold.PLP.Chemscore.Internal.Correction>
0.5479

> <Gold.Rescore>
     Score         DG    S(hbond)    S(metal)    S(lipo)     H(rot)  DE(clash)    DE(int)     intcor
     13.27     -14.79       1.13        0.00      83.01       1.64       0.00       1.52       ----

> <Gold.Chemscore.Fitness>
13.2672

> <Gold.Chemscore.DG>
-14.7872

> <Gold.Chemscore.ZeroCoef>
-5.4800

> <Gold.Chemscore.Hbond>
1.1349

> <Gold.Chemscore.Metal>
0.0000

> <Gold.Chemscore.Lipo>
83.0057

> <Gold.Chemscore.Internal_Hbond>
0.0000

> <Gold.Chemscore.DEClash>
0.0015

> <Gold.Chemscore.DEInternal>
1.5185

> <Gold.Chemscore.Rot>
1.6387

> <Gold.Chemscore.Internal.Correction>
   9.000000E+99

> <Gold.Chemscore.Hbonds>
donor molecule, donor type, donor heavy atom, donor atom, acceptor molecule, acceptor atom, score
      P1  H  7989  7998       L1     3  0.30
      P1  H  7997  8009       L1    17  0.29

> <Gold.Chemscore.Hbond.Weighted>
-3.7906

> <Gold.Chemscore.Metal.Weighted>
-0.0000

> <Gold.Chemscore.Lipo.Weighted>
-9.7117

> <Gold.Chemscore.Internal_Hbond.Weighted>
0.0000

> <Gold.Chemscore.DEClash.Weighted>
0.0015

> <Gold.Chemscore.DEInternal.Weighted>
1.5185

> <Gold.Chemscore.Rot.Weighted>
4.1950

> <Gold.Chemscore.Internal.Correction.Weighted>
   9.000000E+99

> <Gold.Protein.RotatedTorsions>
[ 6907 6896 6895 6894 ] final   24.65 input  -60.11 | X-H torsion
[ 7974 7965 7964 7962 ] final   58.01 input  175.53 | X-H torsion
[ 8008 7997 7996 7995 ] final  124.34 input   59.86 | X-H torsion
[ 10167 10162 10161 10158 ] final  143.69 input  -65.29 | X-H torsion
[ 10718 10713 10712 10709 ] final   -2.99 input   66.30 | X-H torsion
[ 10763 10752 10751 10750 ] final  151.27 input  -60.55 | X-H torsion
[ 11005 11000 10999 10996 ] final -147.44 input  -57.11 | X-H torsion

> <Gold.Protein.ActiveResidues>
 VAL166  LYS551  ARG553  GLY616  TRP617  ASP618  TYR619  PRO620  LYS621  CYS622 
 ASP623  PHE694  ASN695  SER759  ASP760  ASP761  ALA762  ILE779  LEU786  VAL792 
 PHE793  MET794  SER795  GLU796  ALA797  LYS798  CYS799  TRP800  GLU811  SER814 

> <Gold.Protein.RotatedAtoms>
  151.9607  135.0125  160.0547 H   0  0  0  0  0  0  0  0  0  0  0  0  # atno 6907 bound_to 6896
  152.1871  133.4742  159.4996 H   0  0  0  0  0  0  0  0  0  0  0  0  # atno 6908 bound_to 6896
  150.6928  134.1677  159.4243 H   0  0  0  0  0  0  0  0  0  0  0  0  # atno 6909 bound_to 6896
  145.9229  139.3744  143.0468 H   0  0  0  0  0  0  0  0  0  0  0  0  # atno 7974 bound_to 7965
  156.2798  140.2742  156.1773 H   0  0  0  0  0  0  0  0  0  0  0  0  # atno 8008 bound_to 7997
  155.0593  140.0386  157.2589 H   0  0  0  0  0  0  0  0  0  0  0  0  # atno 8009 bound_to 7997
  154.7130  140.2672  155.6617 H   0  0  0  0  0  0  0  0  0  0  0  0  # atno 8010 bound_to 7997
  139.4964  144.6023  151.6454 H   0  0  0  0  0  0  0  0  0  0  0  0  # atno 10167 bound_to 10162
  156.7827  130.5336  149.5748 H   0  0  0  0  0  0  0  0  0  0  0  0  # atno 10718 bound_to 10713
  154.1010  135.2845  155.3251 H   0  0  0  0  0  0  0  0  0  0  0  0  # atno 10763 bound_to 10752
  154.6555  135.5353  153.7957 H   0  0  0  0  0  0  0  0  0  0  0  0  # atno 10764 bound_to 10752
  153.0379  135.6521  154.1173 H   0  0  0  0  0  0  0  0  0  0  0  0  # atno 10765 bound_to 10752
  140.7716  134.3182  157.5073 H   0  0  0  0  0  0  0  0  0  0  0  0  # atno 11005 bound_to 11000
  145.8527  140.9520  143.0741 LP  0  0  0  0  0  0  0  0  0  0  0  0  # atno 17320 bound_to 7965
  144.6755  140.0428  143.7480 LP  0  0  0  0  0  0  0  0  0  0  0  0  # atno 17321 bound_to 7965
  140.5676  144.0163  150.6200 LP  0  0  0  0  0  0  0  0  0  0  0  0  # atno 17342 bound_to 10162
  140.3270  143.3101  152.0726 LP  0  0  0  0  0  0  0  0  0  0  0  0  # atno 17343 bound_to 10162
  156.1208  130.6108  151.0190 LP  0  0  0  0  0  0  0  0  0  0  0  0  # atno 17370 bound_to 10713
  157.6639  131.0875  150.7775 LP  0  0  0  0  0  0  0  0  0  0  0  0  # atno 17371 bound_to 10713
  139.8755  134.9264  156.3400 LP  0  0  0  0  0  0  0  0  0  0  0  0  # atno 17394 bound_to 11000
  140.9568  133.7415  156.0346 LP  0  0  0  0  0  0  0  0  0  0  0  0  # atno 17395 bound_to 11000

$$$$
