#       Name:                AV-unprocessed.smi:99
#       Creating user name   scv26
#       Creation time:       Thu Mar 26 17:32:24 2020


#       File generated by GOLD software.
#

@<TRIPOS>MOLECULE
AV-unprocessed.smi:99
    65    68     1
SMALL
NO_CHARGES


@<TRIPOS>ATOM
      1 ****        -3.7467   1.0908  -0.6910 O.2            1 S1                 0.0000
      2 ****        -2.8836   1.9593  -0.8347 C.2            1 S1                 0.0000
      3 ****        -1.5693   1.7447  -0.6308 O.3            1 S1                 0.0000
      4 ****        -1.1179   0.4673  -0.2133 C.3            1 S1                 0.0000
      5 ****         0.4076   0.5110  -0.0152 C.3            1 S1                 0.0000
      6 ****         0.6952   1.2103   1.1939 O.3            1 S1                 0.0000
      7 ****         0.8417   0.3181   2.2642 C.3            1 S1                 0.0000
      8 ****         2.1522   0.6065   2.9599 N.am           1 S1                 0.0000
      9 ****         3.2691   1.0222   2.2469 C.2            1 S1                 0.0000
     10 ****         4.4645   1.2767   2.8293 C.2            1 S1                 0.0000
     11 ****         4.6353   1.1155   4.2694 C.2            1 S1                 0.0000
     12 ****         5.6764   1.3264   4.8874 O.2            1 S1                 0.0000
     13 ****         3.4907   0.6818   4.9445 N.am           1 S1                 0.0000
     14 ****         2.2551   0.4105   4.3548 C.2            1 S1                 0.0000
     15 ****         1.3191   0.0112   5.0462 O.2            1 S1                 0.0000
     16 ****         0.8404  -1.1150   1.7073 C.3            1 S1                 0.0000
     17 ****        -0.3952  -1.7538   1.9704 O.3            1 S1                 0.0000
     18 ****         1.0589  -0.8518   0.2226 C.3            1 S1                 0.0000
     19 ****         0.5983  -1.8897  -0.6364 O.3            1 S1                 0.0000
     20 ****         1.3418  -2.9968  -0.8464 C.2            1 S1                 0.0000
     21 ****         2.4380  -3.1935  -0.3184 O.2            1 S1                 0.0000
     22 ****         0.6920  -3.9616  -1.7794 C.ar           1 S1                 0.0000
     23 ****         1.3457  -5.1785  -2.0832 C.ar           1 S1                 0.0000
     24 ****         0.7566  -6.1100  -2.9602 C.ar           1 S1                 0.0000
     25 ****        -0.4934  -5.8353  -3.5449 C.ar           1 S1                 0.0000
     26 ****        -1.1538  -4.6282  -3.2511 C.ar           1 S1                 0.0000
     27 ****        -0.5668  -3.6958  -2.3736 C.ar           1 S1                 0.0000
     28 ****        -3.1865   3.3597  -1.2497 C.ar           1 S1                 0.0000
     29 ****        -4.5314   3.7434  -1.4619 C.ar           1 S1                 0.0000
     30 ****        -4.8493   5.0594  -1.8503 C.ar           1 S1                 0.0000
     31 ****        -3.8260   6.0076  -2.0327 C.ar           1 S1                 0.0000
     32 ****        -2.4841   5.6380  -1.8266 C.ar           1 S1                 0.0000
     33 ****        -2.1641   4.3225  -1.4371 C.ar           1 S1                 0.0000
     34 ****         3.5656   0.5486   5.9426 H              1 S1                 0.0000
     35 ****        -1.6259   0.1690   0.7044 H              1 S1                 0.0000
     36 ****        -1.3755  -0.2602  -0.9841 H              1 S1                 0.0000
     37 ****         0.8752   1.0092  -0.8650 H              1 S1                 0.0000
     38 ****         0.0474   0.5161   2.9866 H              1 S1                 0.0000
     39 ****         3.1991   1.1503   1.1768 H              1 S1                 0.0000
     40 ****         5.3005   1.6005   2.2260 H              1 S1                 0.0000
     41 ****         1.6441  -1.7118   2.1415 H              1 S1                 0.0000
     42 ****        -0.3737  -2.6173   1.5867 H              1 S1                 0.0000
     43 ****         2.1292  -0.7128   0.0609 H              1 S1                 0.0000
     44 ****         2.3063  -5.4115  -1.6467 H              1 S1                 0.0000
     45 ****         1.2648  -7.0364  -3.1840 H              1 S1                 0.0000
     46 ****        -0.9448  -6.5499  -4.2174 H              1 S1                 0.0000
     47 ****        -2.1133  -4.4162  -3.6994 H              1 S1                 0.0000
     48 ****        -1.1015  -2.7794  -2.1699 H              1 S1                 0.0000
     49 ****        -5.3343   3.0330  -1.3270 H              1 S1                 0.0000
     50 ****        -5.8801   5.3409  -2.0078 H              1 S1                 0.0000
     51 ****        -4.0700   7.0168  -2.3303 H              1 S1                 0.0000
     52 ****        -1.6977   6.3648  -1.9674 H              1 S1                 0.0000
     53 ****        -1.1241   4.0720  -1.2872 H              1 S1                 0.0000
     54 ****        -3.4852   0.1679  -0.4084 LP             1 S1                 0.0000
     55 ****        -4.7084   1.3092  -0.8571 LP             1 S1                 0.0000
     56 ****        -0.0546   1.8411   1.3937 LP             1 S1                 0.0000
     57 ****         1.5438   1.7268   1.0796 LP             1 S1                 0.0000
     58 ****         6.4935   1.6342   4.4001 LP             1 S1                 0.0000
     59 ****         5.7064   1.1903   5.8776 LP             1 S1                 0.0000
     60 ****         0.4355  -0.1903   4.6234 LP             1 S1                 0.0000
     61 ****         1.4418  -0.1118   6.0310 LP             1 S1                 0.0000
     62 ****        -1.1415  -1.2240   1.5674 LP             1 S1                 0.0000
     63 ****        -0.5337  -1.8268   2.9581 LP             1 S1                 0.0000
     64 ****         2.8224  -2.5122   0.3045 LP             1 S1                 0.0000
     65 ****         2.9430  -4.0344  -0.5129 LP             1 S1                 0.0000
@<TRIPOS>BOND
    1    1    2 2     
    2    2    3 1     
    3    2   28 1     
    4    3    4 1     
    5    4    5 1     
    6    4   35 1     
    7    4   36 1     
    8    5   18 1     
    9    5    6 1     
   10    5   37 1     
   11    6    7 1     
   12    7    8 1     
   13    7   16 1     
   14    7   38 1     
   15    8   14 1     
   16    8    9 1     
   17    9   10 2     
   18    9   39 1     
   19   10   11 1     
   20   10   40 1     
   21   11   12 2     
   22   11   13 1     
   23   13   34 1     
   24   13   14 1     
   25   14   15 2     
   26   16   17 1     
   27   16   18 1     
   28   16   41 1     
   29   17   42 1     
   30   18   19 1     
   31   18   43 1     
   32   19   20 1     
   33   20   21 2     
   34   20   22 1     
   35   22   27 ar    
   36   22   23 ar    
   37   23   24 ar    
   38   23   44 1     
   39   24   25 ar    
   40   24   45 1     
   41   25   26 ar    
   42   25   46 1     
   43   26   27 ar    
   44   26   47 1     
   45   27   48 1     
   46   28   33 ar    
   47   28   29 ar    
   48   29   30 ar    
   49   29   49 1     
   50   30   31 ar    
   51   30   50 1     
   52   31   32 ar    
   53   31   51 1     
   54   32   33 ar    
   55   32   52 1     
   56   33   53 1     
   57    1   54 1     
   58    1   55 1     
   59    6   56 1     
   60    6   57 1     
   61   12   58 1     
   62   12   59 1     
   63   15   60 1     
   64   15   61 1     
   65   17   62 1     
   66   17   63 1     
   67   21   64 1     
   68   21   65 1     
@<TRIPOS>SUBSTRUCTURE
      1 S1             1
@<TRIPOS>SET
LONE_PAIRS      STATIC     ATOMS    <user>   **** ""
12 54 55 56 57 58 59 60 61 62 63 64 65
DONOR_HYDROGENS      STATIC     ATOMS    <user>   **** ""
2 34 42
ATOM$BLUE        STATIC     ATOMS    COLORGROUP SYSTEM
12 54 55 56 57 58 59 60 61 62 63 64 65
ATOM$RED        STATIC     ATOMS    COLORGROUP SYSTEM
2 34 42
