AV-unprocessed.smi:3064|AV-procd|sdf|11690|dock5
  -GOLD-   2272017 93D 1   1.00000     0.00000
 Structure written by MMmdl.
 21 22  0  0  0  0  0  0  0  0  1 V2000
  152.7551  142.8829  159.9432 C   0  0  0  0  0  0  0  0  0  0  0  0
  152.3415  143.9597  159.2015 C   0  0  0  0  0  0  0  0  0  0  0  0
  151.6236  143.4659  157.6927 S   0  0  0  0  0  0  0  0  0  0  0  0
  151.9002  141.7857  158.1429 C   0  0  0  0  0  0  0  0  0  0  0  0
  151.5465  140.6390  157.2498 C   0  0  1  0  0  0  0  0  0  0  0  0
  150.9972  141.1058  155.8878 C   0  0  0  0  0  0  0  0  0  0  0  0
  150.7394  139.9543  155.0247 N   0  0  0  0  0  0  0  0  0  0  0  0
  151.9347  139.1246  154.8804 C   0  0  0  0  0  0  0  0  0  0  0  0
  152.4691  138.7100  156.2633 C   0  0  0  0  0  0  0  0  0  0  0  0
  152.7307  139.8717  157.0438 O   0  0  0  0  0  0  0  0  0  0  0  0
  152.5087  141.6540  159.3266 N   0  0  0  0  0  0  0  0  0  0  0  0
  153.2336  142.8987  160.9113 H   0  0  0  0  0  0  0  0  0  0  0  0
  152.4185  145.0081  159.4481 H   0  0  0  0  0  0  0  0  0  0  0  0
  150.8035  140.0276  157.7655 H   0  0  0  0  0  0  0  0  0  0  0  0
  150.0813  141.6803  156.0275 H   0  0  0  0  0  0  0  0  0  0  0  0
  151.7158  141.7725  155.4092 H   0  0  0  0  0  0  0  0  0  0  0  0
  150.4357  140.2753  154.1109 H   0  0  0  0  0  0  0  0  0  0  0  0
  151.7067  138.2398  154.2857 H   0  0  0  0  0  0  0  0  0  0  0  0
  152.7060  139.6751  154.3403 H   0  0  0  0  0  0  0  0  0  0  0  0
  151.7588  138.0613  156.7784 H   0  0  0  0  0  0  0  0  0  0  0  0
  153.3938  138.1436  156.1528 H   0  0  0  0  0  0  0  0  0  0  0  0
  1 11  1  0  0  0  0
  1  2  2  0  0  0  0
  1 12  1  0  0  0  0
  2  3  1  0  0  0  0
  2 13  1  0  0  0  0
  3  4  1  0  0  0  0
  4  5  1  0  0  0  0
  4 11  2  0  0  0  0
  5 10  1  0  0  0  0
  5  6  1  0  0  0  0
  5 14  1  0  0  0  0
  6  7  1  0  0  0  0
  6 15  1  0  0  0  0
  6 16  1  0  0  0  0
  7  8  1  0  0  0  0
  7 17  1  0  0  0  0
  8  9  1  0  0  0  0
  8 18  1  0  0  0  0
  8 19  1  0  0  0  0
  9 10  1  0  0  0  0
  9 20  1  0  0  0  0
  9 21  1  0  0  0  0
M  END
> <s_m_source_file>
AV-unprocessed.smi

> <i_m_source_file_index>
3064

> <i_lp_mmshare_version>
43012

> <i_f3d_flags>
0

> <s_epik_input>
bjFbY0hdW2NIXXNjMVtDQEBIXTJbQ0gyXVtOSF1bQ0gyXVtDSDJdTzI=

> <s_epik_cmdline>
J2VwaWtfcHl0aG9uJywgJy1waCcsICc3LjAnLCAnLXRuJywgJzgnLCAnLW1hJywgJzIwMCcsICctbWV0YWxfYmluZGluZycsICctaW1hZScsICc8aW5maWxlLm1hZT4nLCAnLW9tYWUnLCAnPG91dGZpbGUubWFlPic=

> <r_epik_Ionization_Penalty>
0.980767

> <r_epik_Ionization_Penalty_Charging>
0

> <r_epik_Ionization_Penalty_Neutral>
0.980767

> <r_epik_State_Penalty>
1.0271

> <r_epik_Charging_Adjusted_Penalty>
1.0271

> <i_epik_Tot_Q>
0

> <i_epik_Tot_abs_Q>
0

> <r_epik_Metal_State_Penalty>
1.02673

> <b_epik_Metal_Only>
0

> <s_lp_Force_Field>
OPLS_2005

> <r_lp_Energy>
8.04051

> <b_lp_Chiralities_Consistent>
1

> <s_lp_Variant>
AV-unprocessed.smi:3064-4

> <Gold.Version>
5.8.1

> <Gold.Id.Protein>
6NUR|6NUR_protein|mol2

> <Gold.PLP.Fitness>
28.7193

> <Gold.PLP.PLP>
-25.8173

> <Gold.PLP.part.hbond>
-2.0000

> <Gold.PLP.part.metal>
0.0000

> <Gold.PLP.part.buried>
-1.7101

> <Gold.PLP.part.nonpolar>
-20.9633

> <Gold.PLP.part.repulsive>
0.0000

> <Gold.PLP.ligand.clash>
0.0000

> <Gold.PLP.ligand.torsion>
0.0543

> <Gold.PLP.Chemscore.Hbond>
1.0000

> <Gold.PLP.Chemscore.CHOScore>
0.0000

> <Gold.PLP.Chemscore.Metal>
0.0000

> <Gold.Chemscore.Hbonds>
donor molecule, donor type, donor heavy atom, donor atom, acceptor molecule, acceptor atom, score
      P1  H  7997  8009       L1    10  1.00

> <Gold.PLP.Chemscore.Internal.Correction>
0.0106

> <Gold.Rescore>
     Score         DG    S(hbond)    S(metal)    S(lipo)     H(rot)  DE(clash)    DE(int)     intcor
     14.35     -14.67       0.92        0.00      74.09       1.00       0.27       0.05       ----

> <Gold.Chemscore.Fitness>
14.3532

> <Gold.Chemscore.DG>
-14.6712

> <Gold.Chemscore.ZeroCoef>
-5.4800

> <Gold.Chemscore.Hbond>
0.9228

> <Gold.Chemscore.Metal>
0.0000

> <Gold.Chemscore.Lipo>
74.0936

> <Gold.Chemscore.Internal_Hbond>
0.0000

> <Gold.Chemscore.DEClash>
0.2729

> <Gold.Chemscore.DEInternal>
0.0451

> <Gold.Chemscore.Rot>
1.0000

> <Gold.Chemscore.Internal.Correction>
   9.000000E+99

> <Gold.Chemscore.Hbonds>
donor molecule, donor type, donor heavy atom, donor atom, acceptor molecule, acceptor atom, score
      P1  H  7997  8009       L1    10  0.30

> <Gold.Chemscore.Hbond.Weighted>
-3.0823

> <Gold.Chemscore.Metal.Weighted>
-0.0000

> <Gold.Chemscore.Lipo.Weighted>
-8.6690

> <Gold.Chemscore.Internal_Hbond.Weighted>
0.0000

> <Gold.Chemscore.DEClash.Weighted>
0.2729

> <Gold.Chemscore.DEInternal.Weighted>
0.0451

> <Gold.Chemscore.Rot.Weighted>
2.5600

> <Gold.Chemscore.Internal.Correction.Weighted>
   9.000000E+99

> <Gold.Protein.RotatedTorsions>
[ 6907 6896 6895 6894 ] final   26.68 input  -60.11 | X-H torsion
[ 7974 7965 7964 7962 ] final -177.96 input  175.53 | X-H torsion
[ 8008 7997 7996 7995 ] final  172.07 input   59.86 | X-H torsion
[ 10167 10162 10161 10158 ] final   -4.68 input  -65.29 | X-H torsion
[ 10718 10713 10712 10709 ] final   -8.14 input   66.30 | X-H torsion
[ 10763 10752 10751 10750 ] final   89.80 input  -60.55 | X-H torsion
[ 11005 11000 10999 10996 ] final  178.22 input  -57.11 | X-H torsion

> <Gold.Protein.ActiveResidues>
 VAL166  LYS551  ARG553  GLY616  TRP617  ASP618  TYR619  PRO620  LYS621  CYS622 
 ASP623  PHE694  ASN695  SER759  ASP760  ASP761  ALA762  ILE779  LEU786  VAL792 
 PHE793  MET794  SER795  GLU796  ALA797  LYS798  CYS799  TRP800  GLU811  SER814 

> <Gold.Protein.RotatedAtoms>
  151.9910  134.9979  160.0561 H   0  0  0  0  0  0  0  0  0  0  0  0  # atno 6907 bound_to 6896
  152.1608  133.4576  159.4868 H   0  0  0  0  0  0  0  0  0  0  0  0  # atno 6908 bound_to 6896
  150.6887  134.1991  159.4358 H   0  0  0  0  0  0  0  0  0  0  0  0  # atno 6909 bound_to 6896
  144.7129  140.0940  143.6420 H   0  0  0  0  0  0  0  0  0  0  0  0  # atno 7974 bound_to 7965
  156.1210  140.1495  156.9204 H   0  0  0  0  0  0  0  0  0  0  0  0  # atno 8008 bound_to 7997
  154.4836  140.0872  156.7476 H   0  0  0  0  0  0  0  0  0  0  0  0  # atno 8009 bound_to 7997
  155.4428  140.3431  155.4294 H   0  0  0  0  0  0  0  0  0  0  0  0  # atno 8010 bound_to 7997
  140.6936  143.6396  150.8448 H   0  0  0  0  0  0  0  0  0  0  0  0  # atno 10167 bound_to 10162
  156.7070  130.5110  149.5902 H   0  0  0  0  0  0  0  0  0  0  0  0  # atno 10718 bound_to 10713
  153.1909  135.4457  155.0147 H   0  0  0  0  0  0  0  0  0  0  0  0  # atno 10763 bound_to 10752
  154.8089  135.3286  154.7360 H   0  0  0  0  0  0  0  0  0  0  0  0  # atno 10764 bound_to 10752
  153.7814  135.6977  153.4943 H   0  0  0  0  0  0  0  0  0  0  0  0  # atno 10765 bound_to 10752
  140.3927  134.6848  157.4516 H   0  0  0  0  0  0  0  0  0  0  0  0  # atno 11005 bound_to 11000
  145.9595  139.2791  143.1164 LP  0  0  0  0  0  0  0  0  0  0  0  0  # atno 17320 bound_to 7965
  145.9235  140.9098  143.0393 LP  0  0  0  0  0  0  0  0  0  0  0  0  # atno 17321 bound_to 7965
  140.0111  143.5641  152.2838 LP  0  0  0  0  0  0  0  0  0  0  0  0  # atno 17342 bound_to 10162
  139.6366  144.7650  151.2426 LP  0  0  0  0  0  0  0  0  0  0  0  0  # atno 17343 bound_to 10162
  156.1688  130.6423  151.0811 LP  0  0  0  0  0  0  0  0  0  0  0  0  # atno 17370 bound_to 10713
  157.6951  131.0797  150.6993 LP  0  0  0  0  0  0  0  0  0  0  0  0  # atno 17371 bound_to 10713
  140.0395  134.6288  155.8999 LP  0  0  0  0  0  0  0  0  0  0  0  0  # atno 17394 bound_to 11000
  141.1885  133.6563  156.5328 LP  0  0  0  0  0  0  0  0  0  0  0  0  # atno 17395 bound_to 11000

$$$$
