AV-unprocessed.smi:1466|AV-procd|sdf|5954|dock5
  -GOLD-   22720 6 43D 1   1.00000     0.00000
 Structure written by MMmdl.
 48 49  0  0  0  0  0  0  0  0  1 V2000
  142.2978  146.5347  162.6043 C   0  0  0  0  0  0  0  0  0  0  0  0
  142.3292  145.2567  161.9040 N   0  0  0  0  0  0  0  0  0  0  0  0
  141.1424  144.4075  161.8857 C   0  0  0  0  0  0  0  0  0  0  0  0
  143.4943  144.8522  161.2127 C   0  0  0  0  0  0  0  0  0  0  0  0
  143.8101  143.4828  161.0321 C   0  0  0  0  0  0  0  0  0  0  0  0
  144.9823  143.1292  160.3360 C   0  0  0  0  0  0  0  0  0  0  0  0
  145.8207  144.1534  159.8391 C   0  0  0  0  0  0  0  0  0  0  0  0
  147.0169  143.9313  159.1043 N   0  0  0  0  0  0  0  0  0  0  0  0
  147.6876  142.7820  158.9153 C   0  0  0  0  0  0  0  0  0  0  0  0
  147.3809  141.6897  159.3924 O   0  0  0  0  0  0  0  0  0  0  0  0
  148.7670  142.9749  158.1440 N   0  0  0  0  0  0  0  0  0  0  0  0
  149.7157  141.9375  157.7576 C   0  0  0  0  0  0  0  0  0  0  0  0
  151.0064  142.5417  157.1744 C   0  0  0  0  0  0  0  0  0  0  0  0
  152.0607  142.6392  158.1904 N   0  0  0  0  0  0  0  0  0  0  0  0
  152.7087  143.9533  158.3262 C   0  0  0  0  0  0  0  0  0  0  0  0
  152.3480  144.6937  159.6347 C   0  0  0  0  0  0  0  0  0  0  0  0
  152.0375  143.8056  160.8559 C   0  0  0  0  0  0  0  0  0  0  0  0
  153.1053  142.7390  161.1775 C   0  0  0  0  0  0  0  0  0  0  0  0
  153.4973  141.7813  160.0265 C   0  0  0  0  0  0  0  0  0  0  0  0
  152.4037  141.5804  158.9646 C   0  0  0  0  0  0  0  0  0  0  0  0
  151.8798  140.4715  158.8553 O   0  0  0  0  0  0  0  0  0  0  0  0
  145.4184  145.4854  160.0560 C   0  0  0  0  0  0  0  0  0  0  0  0
  144.2971  145.8282  160.7229 N   0  0  0  0  0  0  0  0  0  0  0  0
  142.4830  147.3562  161.9117 H   0  0  0  0  0  0  0  0  0  0  0  0
  143.0546  146.5611  163.3890 H   0  0  0  0  0  0  0  0  0  0  0  0
  141.3286  146.7074  163.0725 H   0  0  0  0  0  0  0  0  0  0  0  0
  140.7920  144.2601  160.8637 H   0  0  0  0  0  0  0  0  0  0  0  0
  140.3269  144.8503  162.4573 H   0  0  0  0  0  0  0  0  0  0  0  0
  141.3631  143.4323  162.3211 H   0  0  0  0  0  0  0  0  0  0  0  0
  143.1756  142.6950  161.4084 H   0  0  0  0  0  0  0  0  0  0  0  0
  145.2019  142.0839  160.1873 H   0  0  0  0  0  0  0  0  0  0  0  0
  147.4402  144.7594  158.7116 H   0  0  0  0  0  0  0  0  0  0  0  0
  148.9453  143.9066  157.7984 H   0  0  0  0  0  0  0  0  0  0  0  0
  149.9362  141.2955  158.6122 H   0  0  0  0  0  0  0  0  0  0  0  0
  149.2334  141.3050  157.0119 H   0  0  0  0  0  0  0  0  0  0  0  0
  151.3508  141.9398  156.3322 H   0  0  0  0  0  0  0  0  0  0  0  0
  150.8049  143.5288  156.7541 H   0  0  0  0  0  0  0  0  0  0  0  0
  153.7894  143.8263  158.2618 H   0  0  0  0  0  0  0  0  0  0  0  0
  152.4718  144.5940  157.4758 H   0  0  0  0  0  0  0  0  0  0  0  0
  153.1544  145.3854  159.8807 H   0  0  0  0  0  0  0  0  0  0  0  0
  151.4732  145.3178  159.4492 H   0  0  0  0  0  0  0  0  0  0  0  0
  151.9051  144.4446  161.7294 H   0  0  0  0  0  0  0  0  0  0  0  0
  151.0709  143.3202  160.7133 H   0  0  0  0  0  0  0  0  0  0  0  0
  154.0069  143.2380  161.5342 H   0  0  0  0  0  0  0  0  0  0  0  0
  152.7487  142.1452  162.0200 H   0  0  0  0  0  0  0  0  0  0  0  0
  154.4035  142.1369  159.5364 H   0  0  0  0  0  0  0  0  0  0  0  0
  153.7713  140.8122  160.4457 H   0  0  0  0  0  0  0  0  0  0  0  0
  146.0158  146.3058  159.6859 H   0  0  0  0  0  0  0  0  0  0  0  0
  1  2  1  0  0  0  0
  1 24  1  0  0  0  0
  1 25  1  0  0  0  0
  1 26  1  0  0  0  0
  2  3  1  0  0  0  0
  2  4  1  0  0  0  0
  3 27  1  0  0  0  0
  3 28  1  0  0  0  0
  3 29  1  0  0  0  0
  4 23  1  0  0  0  0
  4  5  2  0  0  0  0
  5  6  1  0  0  0  0
  5 30  1  0  0  0  0
  6  7  2  0  0  0  0
  6 31  1  0  0  0  0
  7  8  1  0  0  0  0
  7 22  1  0  0  0  0
  8  9  1  0  0  0  0
  8 32  1  0  0  0  0
  9 10  2  0  0  0  0
  9 11  1  0  0  0  0
 11 12  1  0  0  0  0
 11 33  1  0  0  0  0
 12 13  1  0  0  0  0
 12 34  1  0  0  0  0
 12 35  1  0  0  0  0
 13 14  1  0  0  0  0
 13 36  1  0  0  0  0
 13 37  1  0  0  0  0
 14 20  1  0  0  0  0
 14 15  1  0  0  0  0
 15 16  1  0  0  0  0
 15 38  1  0  0  0  0
 15 39  1  0  0  0  0
 16 17  1  0  0  0  0
 16 40  1  0  0  0  0
 16 41  1  0  0  0  0
 17 18  1  0  0  0  0
 17 42  1  0  0  0  0
 17 43  1  0  0  0  0
 18 19  1  0  0  0  0
 18 44  1  0  0  0  0
 18 45  1  0  0  0  0
 19 20  1  0  0  0  0
 19 46  1  0  0  0  0
 19 47  1  0  0  0  0
 20 21  2  0  0  0  0
 22 23  2  0  0  0  0
 22 48  1  0  0  0  0
M  END
> <s_m_source_file>
AV-unprocessed.smi

> <i_m_source_file_index>
1466

> <i_lp_mmshare_version>
43012

> <i_f3d_flags>
0

> <s_epik_input>
W0NIM11OKFtDSDNdKWMxW2NIXVtjSF1jKFtjSF1uMSlbTkhdQyg9TylbTkhdW0NIMl1bQ0gyXU4yW0NIMl1bQ0gyXVtDSDJdW0NIMl1bQ0gyXUMyPU8=

> <s_epik_cmdline>
J2VwaWtfcHl0aG9uJywgJy1waCcsICc3LjAnLCAnLXRuJywgJzgnLCAnLW1hJywgJzIwMCcsICctbWV0YWxfYmluZGluZycsICctaW1hZScsICc8aW5maWxlLm1hZT4nLCAnLW9tYWUnLCAnPG91dGZpbGUubWFlPic=

> <r_lp_tautomer_probability>
1

> <r_epik_Ionization_Penalty>
0.597116

> <r_epik_Ionization_Penalty_Charging>
0

> <r_epik_Ionization_Penalty_Neutral>
0.597116

> <r_epik_State_Penalty>
0.610079

> <r_epik_Charging_Adjusted_Penalty>
0.610079

> <i_epik_Tot_Q>
0

> <i_epik_Tot_abs_Q>
0

> <r_epik_Metal_State_Penalty>
0.299962

> <b_epik_Metal_Only>
0

> <s_lp_Force_Field>
OPLS_2005

> <r_lp_Energy>
26.5805

> <b_lp_Chiralities_Consistent>
1

> <s_lp_Variant>
AV-unprocessed.smi:1466-2

> <Gold.Version>
5.8.1

> <Gold.Id.Protein>
6NUR|6NUR_protein|mol2

> <Gold.PLP.Fitness>
48.9352

> <Gold.PLP.PLP>
-41.3950

> <Gold.PLP.part.hbond>
-3.8225

> <Gold.PLP.part.metal>
0.0000

> <Gold.PLP.part.buried>
-3.5355

> <Gold.PLP.part.nonpolar>
-33.4816

> <Gold.PLP.part.repulsive>
0.1990

> <Gold.PLP.ligand.clash>
0.0000

> <Gold.PLP.ligand.torsion>
0.7904

> <Gold.PLP.Chemscore.Hbond>
2.1880

> <Gold.PLP.Chemscore.CHOScore>
0.8452

> <Gold.PLP.Chemscore.Metal>
0.0000

> <Gold.Chemscore.Hbonds>
donor molecule, donor type, donor heavy atom, donor atom, acceptor molecule, acceptor atom, score
      L1  H     8    32       P1  8029  1.00
      L1  H    11    33       P1  8028  0.13
      P1  H  6933  6944       L1    10  0.01
      P1  H  6934  6946       L1    10  0.42

> <Gold.PLP.Chemscore.Internal.Correction>
0.0214

> <Gold.Rescore>
     Score         DG    S(hbond)    S(metal)    S(lipo)     H(rot)  DE(clash)    DE(int)     intcor
     15.73     -18.31       1.55        0.00      97.77       1.48       0.22       2.36       ----

> <Gold.Chemscore.Fitness>
15.7296

> <Gold.Chemscore.DG>
-18.3123

> <Gold.Chemscore.ZeroCoef>
-5.4800

> <Gold.Chemscore.Hbond>
1.5523

> <Gold.Chemscore.Metal>
0.0000

> <Gold.Chemscore.Lipo>
97.7696

> <Gold.Chemscore.Internal_Hbond>
0.0000

> <Gold.Chemscore.DEClash>
0.2227

> <Gold.Chemscore.DEInternal>
2.3600

> <Gold.Chemscore.Rot>
1.4810

> <Gold.Chemscore.Internal.Correction>
   9.000000E+99

> <Gold.Chemscore.Hbonds>
donor molecule, donor type, donor heavy atom, donor atom, acceptor molecule, acceptor atom, score
      L1  H     8    32       P1  8029  0.97
      L1  H    11    33       P1  8028  0.01
      P1  H  6934  6946       L1    10  0.41

> <Gold.Chemscore.Hbond.Weighted>
-5.1845

> <Gold.Chemscore.Metal.Weighted>
-0.0000

> <Gold.Chemscore.Lipo.Weighted>
-11.4390

> <Gold.Chemscore.Internal_Hbond.Weighted>
0.0000

> <Gold.Chemscore.DEClash.Weighted>
0.2227

> <Gold.Chemscore.DEInternal.Weighted>
2.3600

> <Gold.Chemscore.Rot.Weighted>
3.7912

> <Gold.Chemscore.Internal.Correction.Weighted>
   9.000000E+99

> <Gold.Protein.RotatedTorsions>
[ 6907 6896 6895 6894 ] final -168.29 input  -60.11 | X-H torsion
[ 7974 7965 7964 7962 ] final  -33.87 input  175.53 | X-H torsion
[ 8008 7997 7996 7995 ] final  -48.04 input   59.86 | X-H torsion
[ 10167 10162 10161 10158 ] final  -60.81 input  -65.29 | X-H torsion
[ 10718 10713 10712 10709 ] final -134.69 input   66.30 | X-H torsion
[ 10763 10752 10751 10750 ] final -164.61 input  -60.55 | X-H torsion
[ 11005 11000 10999 10996 ] final  -20.23 input  -57.11 | X-H torsion

> <Gold.Protein.ActiveResidues>
 VAL166  LYS551  ARG553  GLY616  TRP617  ASP618  TYR619  PRO620  LYS621  CYS622 
 ASP623  PHE694  ASN695  SER759  ASP760  ASP761  ALA762  ILE779  LEU786  VAL792 
 PHE793  MET794  SER795  GLU796  ALA797  LYS798  CYS799  TRP800  GLU811  SER814 

> <Gold.Protein.RotatedAtoms>
  151.4732  133.3564  159.2826 H   0  0  0  0  0  0  0  0  0  0  0  0  # atno 6907 bound_to 6896
  150.8947  134.8356  159.7329 H   0  0  0  0  0  0  0  0  0  0  0  0  # atno 6908 bound_to 6896
  152.4844  134.4645  159.9668 H   0  0  0  0  0  0  0  0  0  0  0  0  # atno 6909 bound_to 6896
  146.0876  140.5969  142.8879 H   0  0  0  0  0  0  0  0  0  0  0  0  # atno 7974 bound_to 7965
  154.4024  140.1331  156.4273 H   0  0  0  0  0  0  0  0  0  0  0  0  # atno 8008 bound_to 7997
  155.7585  140.3486  155.5165 H   0  0  0  0  0  0  0  0  0  0  0  0  # atno 8009 bound_to 7997
  155.8882  140.0999  157.1428 H   0  0  0  0  0  0  0  0  0  0  0  0  # atno 8010 bound_to 7997
  140.6047  143.2370  151.5848 H   0  0  0  0  0  0  0  0  0  0  0  0  # atno 10167 bound_to 10162
  156.2582  130.7194  151.1118 H   0  0  0  0  0  0  0  0  0  0  0  0  # atno 10718 bound_to 10713
  154.7012  135.2988  154.9338 H   0  0  0  0  0  0  0  0  0  0  0  0  # atno 10763 bound_to 10752
  154.0269  135.6675  153.4781 H   0  0  0  0  0  0  0  0  0  0  0  0  # atno 10764 bound_to 10752
  153.0683  135.5075  154.8157 H   0  0  0  0  0  0  0  0  0  0  0  0  # atno 10765 bound_to 10752
  140.8444  133.7903  155.9896 H   0  0  0  0  0  0  0  0  0  0  0  0  # atno 11005 bound_to 11000
  144.7336  140.4745  143.6919 LP  0  0  0  0  0  0  0  0  0  0  0  0  # atno 17320 bound_to 7965
  145.6101  139.1512  143.3080 LP  0  0  0  0  0  0  0  0  0  0  0  0  # atno 17321 bound_to 7965
  139.5316  144.2899  152.1160 LP  0  0  0  0  0  0  0  0  0  0  0  0  # atno 17342 bound_to 10162
  140.2087  144.4585  150.6396 LP  0  0  0  0  0  0  0  0  0  0  0  0  # atno 17343 bound_to 10162
  157.7240  131.0662  150.6012 LP  0  0  0  0  0  0  0  0  0  0  0  0  # atno 17370 bound_to 10713
  156.6097  130.4376  149.5864 LP  0  0  0  0  0  0  0  0  0  0  0  0  # atno 17371 bound_to 10713
  140.8860  134.2554  157.5120 LP  0  0  0  0  0  0  0  0  0  0  0  0  # atno 17394 bound_to 11000
  139.8703  134.9638  156.4474 LP  0  0  0  0  0  0  0  0  0  0  0  0  # atno 17395 bound_to 11000

$$$$
