AV-unprocessed.smi:1191|AV-procd|sdf|4985|dock3
  -GOLD-   22720 3583D 1   1.00000     0.00000
 Structure written by MMmdl.
 47 48  0  0  0  0  0  0  0  0  2 V2000
  154.2379  140.9977  160.7031 C   0  0  0  0  0  0  0  0  0  0  0  0
  153.3645  142.1219  160.2286 C   0  0  0  0  0  0  0  0  0  0  0  0
  153.0381  143.3310  160.9040 C   0  0  0  0  0  0  0  0  0  0  0  0
  152.2161  143.9926  160.0355 C   0  0  0  0  0  0  0  0  0  0  0  0
  151.5417  145.3187  160.1670 C   0  0  0  0  0  0  0  0  0  0  0  0
  152.0850  143.1887  158.9167 N   0  0  0  0  0  0  0  0  0  0  0  0
  151.3251  143.4269  157.6985 C   0  0  0  0  0  0  0  0  0  0  0  0
  150.4187  142.2413  157.3613 C   0  0  0  0  0  0  0  0  0  0  0  0
  150.5428  141.1782  157.9690 O   0  0  0  0  0  0  0  0  0  0  0  0
  149.5131  142.4327  156.3892 N   0  0  0  0  0  0  0  0  0  0  0  0
  148.5592  141.4340  155.9245 C   0  0  0  0  0  0  0  0  0  0  0  0
  149.0229  140.7774  154.6096 C   0  0  0  0  0  0  0  0  0  0  0  0
  150.1191  139.7999  154.8237 N   0  3  2  0  0  0  0  0  0  0  0  0
  151.4096  140.4622  155.1450 C   0  0  0  0  0  0  0  0  0  0  0  0
  152.4834  139.4292  155.5224 C   0  0  0  0  0  0  0  0  0  0  0  0
  152.6603  138.3846  154.4111 C   0  0  0  0  0  0  0  0  0  0  0  0
  151.3141  137.7422  154.0279 C   0  0  1  0  0  0  0  0  0  0  0  0
  150.8061  136.7453  155.0845 C   0  0  0  0  0  0  0  0  0  0  0  0
  150.2688  138.8299  153.7045 C   0  0  0  0  0  0  0  0  0  0  0  0
  152.7937  142.0446  159.0378 N   0  0  0  0  0  0  0  0  0  0  0  0
  154.5485  141.1496  161.7371 H   0  0  0  0  0  0  0  0  0  0  0  0
  155.1387  140.9167  160.0946 H   0  0  0  0  0  0  0  0  0  0  0  0
  153.7135  140.0431  160.6528 H   0  0  0  0  0  0  0  0  0  0  0  0
  153.3581  143.6621  161.8809 H   0  0  0  0  0  0  0  0  0  0  0  0
  151.7926  145.7905  161.1171 H   0  0  0  0  0  0  0  0  0  0  0  0
  150.4580  145.2098  160.1235 H   0  0  0  0  0  0  0  0  0  0  0  0
  151.8480  145.9933  159.3672 H   0  0  0  0  0  0  0  0  0  0  0  0
  150.7214  144.3283  157.8155 H   0  0  0  0  0  0  0  0  0  0  0  0
  152.0191  143.6155  156.8786 H   0  0  0  0  0  0  0  0  0  0  0  0
  149.4828  143.3398  155.9450 H   0  0  0  0  0  0  0  0  0  0  0  0
  148.4586  140.6761  156.7017 H   0  0  0  0  0  0  0  0  0  0  0  0
  147.5805  141.9019  155.8190 H   0  0  0  0  0  0  0  0  0  0  0  0
  148.1937  140.2880  154.0965 H   0  0  0  0  0  0  0  0  0  0  0  0
  149.3703  141.5696  153.9444 H   0  0  0  0  0  0  0  0  0  0  0  0
  151.7385  141.0553  154.2899 H   0  0  0  0  0  0  0  0  0  0  0  0
  151.2748  141.1536  155.9778 H   0  0  0  0  0  0  0  0  0  0  0  0
  153.4322  139.9325  155.7110 H   0  0  0  0  0  0  0  0  0  0  0  0
  152.2088  138.9372  156.4559 H   0  0  0  0  0  0  0  0  0  0  0  0
  153.0891  138.8694  153.5328 H   0  0  0  0  0  0  0  0  0  0  0  0
  153.3765  137.6216  154.7179 H   0  0  0  0  0  0  0  0  0  0  0  0
  151.4790  137.1653  153.1169 H   0  0  0  0  0  0  0  0  0  0  0  0
  150.5803  137.2344  156.0321 H   0  0  0  0  0  0  0  0  0  0  0  0
  151.5469  135.9695  155.2801 H   0  0  0  0  0  0  0  0  0  0  0  0
  149.8960  136.2490  154.7465 H   0  0  0  0  0  0  0  0  0  0  0  0
  149.3166  138.3533  153.4752 H   0  0  0  0  0  0  0  0  0  0  0  0
  150.5658  139.3702  152.8041 H   0  0  0  0  0  0  0  0  0  0  0  0
  149.8674  139.2666  155.6437 H   0  0  0  0  0  0  0  0  0  0  0  0
  1  2  1  0  0  0  0
  1 21  1  0  0  0  0
  1 22  1  0  0  0  0
  1 23  1  0  0  0  0
  2 20  2  0  0  0  0
  2  3  1  0  0  0  0
  3  4  2  0  0  0  0
  3 24  1  0  0  0  0
  4  5  1  0  0  0  0
  4  6  1  0  0  0  0
  5 25  1  0  0  0  0
  5 26  1  0  0  0  0
  5 27  1  0  0  0  0
  6  7  1  0  0  0  0
  6 20  1  0  0  0  0
  7  8  1  0  0  0  0
  7 28  1  0  0  0  0
  7 29  1  0  0  0  0
  8  9  2  0  0  0  0
  8 10  1  0  0  0  0
 10 11  1  0  0  0  0
 10 30  1  0  0  0  0
 11 12  1  0  0  0  0
 11 31  1  0  0  0  0
 11 32  1  0  0  0  0
 12 13  1  0  0  0  0
 12 33  1  0  0  0  0
 12 34  1  0  0  0  0
 13 19  1  0  0  0  0
 13 14  1  0  0  0  0
 13 47  1  0  0  0  0
 14 15  1  0  0  0  0
 14 35  1  0  0  0  0
 14 36  1  0  0  0  0
 15 16  1  0  0  0  0
 15 37  1  0  0  0  0
 15 38  1  0  0  0  0
 16 17  1  0  0  0  0
 16 39  1  0  0  0  0
 16 40  1  0  0  0  0
 17 18  1  0  0  0  0
 17 19  1  0  0  0  0
 17 41  1  0  0  0  0
 18 42  1  0  0  0  0
 18 43  1  0  0  0  0
 18 44  1  0  0  0  0
 19 45  1  0  0  0  0
 19 46  1  0  0  0  0
M  CHG  1  13   1
M  END
> <s_m_source_file>
AV-unprocessed.smi

> <i_m_source_file_index>
1191

> <i_lp_mmshare_version>
43012

> <i_f3d_flags>
0

> <s_epik_input>
W0NIM11jMVtjSF1jKFtDSDNdKW4objEpW0NIMl1DKD1PKVtOSF1bQ0gyXVtDSDJdTjJbQ0gyXVtDSDJdW0NIMl1bQ0BASF0oW0NIM10pW0NIMl0y

> <s_epik_cmdline>
J2VwaWtfcHl0aG9uJywgJy1waCcsICc3LjAnLCAnLXRuJywgJzgnLCAnLW1hJywgJzIwMCcsICctbWV0YWxfYmluZGluZycsICctaW1hZScsICc8aW5maWxlLm1hZT4nLCAnLW9tYWUnLCAnPG91dGZpbGUubWFlPic=

> <r_lp_tautomer_probability>
1

> <r_epik_Ionization_Penalty>
0.00249932

> <r_epik_Ionization_Penalty_Charging>
0.00230623

> <r_epik_Ionization_Penalty_Neutral>
0.000193092

> <r_epik_State_Penalty>
-0

> <r_epik_Charging_Adjusted_Penalty>
0.00230623

> <i_epik_Tot_Q>
1

> <i_epik_Tot_abs_Q>
1

> <r_epik_Metal_State_Penalty>
-0

> <b_epik_Metal_Only>
0

> <s_lp_Force_Field>
OPLS_2005

> <r_lp_Energy>
16.5378

> <b_lp_Chiralities_Consistent>
1

> <s_lp_Variant>
AV-unprocessed.smi:1191-2

> <Gold.Version>
5.8.1

> <Gold.Id.Protein>
6NUR|6NUR_protein|mol2

> <Gold.PLP.Fitness>
47.5771

> <Gold.PLP.PLP>
-45.7426

> <Gold.PLP.part.hbond>
-0.8964

> <Gold.PLP.part.metal>
0.0000

> <Gold.PLP.part.buried>
-2.6951

> <Gold.PLP.part.nonpolar>
-43.0272

> <Gold.PLP.part.repulsive>
0.1872

> <Gold.PLP.ligand.clash>
0.0000

> <Gold.PLP.ligand.torsion>
0.4998

> <Gold.PLP.Chemscore.Hbond>
0.9280

> <Gold.PLP.Chemscore.CHOScore>
0.0000

> <Gold.PLP.Chemscore.Metal>
0.0000

> <Gold.Chemscore.Hbonds>
donor molecule, donor type, donor heavy atom, donor atom, acceptor molecule, acceptor atom, score
      L1  H    10    30       P1  8028  1.00

> <Gold.PLP.Chemscore.Internal.Correction>
0.0500

> <Gold.Rescore>
     Score         DG    S(hbond)    S(metal)    S(lipo)     H(rot)  DE(clash)    DE(int)     intcor
     15.01     -18.72       0.88        0.00     124.46       1.67       1.67       2.03       ----

> <Gold.Chemscore.Fitness>
15.0138

> <Gold.Chemscore.DG>
-18.7185

> <Gold.Chemscore.ZeroCoef>
-5.4800

> <Gold.Chemscore.Hbond>
0.8806

> <Gold.Chemscore.Metal>
0.0000

> <Gold.Chemscore.Lipo>
124.4557

> <Gold.Chemscore.Internal_Hbond>
0.0000

> <Gold.Chemscore.DEClash>
1.6704

> <Gold.Chemscore.DEInternal>
2.0343

> <Gold.Chemscore.Rot>
1.6657

> <Gold.Chemscore.Internal.Correction>
   9.000000E+99

> <Gold.Chemscore.Hbonds>
donor molecule, donor type, donor heavy atom, donor atom, acceptor molecule, acceptor atom, score
      L1  H    10    30       P1  8028  0.92

> <Gold.Chemscore.Hbond.Weighted>
-2.9413

> <Gold.Chemscore.Metal.Weighted>
-0.0000

> <Gold.Chemscore.Lipo.Weighted>
-14.5613

> <Gold.Chemscore.Internal_Hbond.Weighted>
0.0000

> <Gold.Chemscore.DEClash.Weighted>
1.6704

> <Gold.Chemscore.DEInternal.Weighted>
2.0343

> <Gold.Chemscore.Rot.Weighted>
4.2641

> <Gold.Chemscore.Internal.Correction.Weighted>
   9.000000E+99

> <Gold.Protein.RotatedTorsions>
[ 6907 6896 6895 6894 ] final -100.72 input  -60.11 | X-H torsion
[ 7974 7965 7964 7962 ] final  -87.69 input  175.53 | X-H torsion
[ 8008 7997 7996 7995 ] final -152.46 input   59.86 | X-H torsion
[ 10167 10162 10161 10158 ] final -139.25 input  -65.29 | X-H torsion
[ 10718 10713 10712 10709 ] final -119.43 input   66.30 | X-H torsion
[ 10763 10752 10751 10750 ] final   18.92 input  -60.55 | X-H torsion
[ 11005 11000 10999 10996 ] final  -87.38 input  -57.11 | X-H torsion

> <Gold.Protein.ActiveResidues>
 VAL166  LYS551  ARG553  GLY616  TRP617  ASP618  TYR619  PRO620  LYS621  CYS622 
 ASP623  PHE694  ASN695  SER759  ASP760  ASP761  ALA762  ILE779  LEU786  VAL792 
 PHE793  MET794  SER795  GLU796  ALA797  LYS798  CYS799  TRP800  GLU811  SER814 

> <Gold.Protein.RotatedAtoms>
  150.7127  134.0843  159.3908 H   0  0  0  0  0  0  0  0  0  0  0  0  # atno 6907 bound_to 6896
  151.8828  135.0445  160.0499 H   0  0  0  0  0  0  0  0  0  0  0  0  # atno 6908 bound_to 6896
  152.2554  133.5215  159.5387 H   0  0  0  0  0  0  0  0  0  0  0  0  # atno 6909 bound_to 6896
  145.4631  140.9561  143.1958 H   0  0  0  0  0  0  0  0  0  0  0  0  # atno 7974 bound_to 7965
  155.6556  140.0717  157.2572 H   0  0  0  0  0  0  0  0  0  0  0  0  # atno 8008 bound_to 7997
  154.4153  140.1725  156.1771 H   0  0  0  0  0  0  0  0  0  0  0  0  # atno 8009 bound_to 7997
  155.9741  140.3359  155.6605 H   0  0  0  0  0  0  0  0  0  0  0  0  # atno 8010 bound_to 7997
  139.8398  143.7336  152.2663 H   0  0  0  0  0  0  0  0  0  0  0  0  # atno 10167 bound_to 10162
  156.1181  130.6301  150.9416 H   0  0  0  0  0  0  0  0  0  0  0  0  # atno 10718 bound_to 10713
  153.1207  135.6718  153.9341 H   0  0  0  0  0  0  0  0  0  0  0  0  # atno 10763 bound_to 10752
  153.8858  135.3053  155.3447 H   0  0  0  0  0  0  0  0  0  0  0  0  # atno 10764 bound_to 10752
  154.7618  135.4984  153.9558 H   0  0  0  0  0  0  0  0  0  0  0  0  # atno 10765 bound_to 10752
  141.1617  133.7508  156.9298 H   0  0  0  0  0  0  0  0  0  0  0  0  # atno 11005 bound_to 11000
  144.7990  139.6177  143.7080 LP  0  0  0  0  0  0  0  0  0  0  0  0  # atno 17320 bound_to 7965
  146.2439  139.6058  142.9472 LP  0  0  0  0  0  0  0  0  0  0  0  0  # atno 17321 bound_to 7965
  139.7570  144.7518  151.0420 LP  0  0  0  0  0  0  0  0  0  0  0  0  # atno 17342 bound_to 10162
  140.7799  143.4794  151.0038 LP  0  0  0  0  0  0  0  0  0  0  0  0  # atno 17343 bound_to 10162
  157.6364  131.0915  150.8339 LP  0  0  0  0  0  0  0  0  0  0  0  0  # atno 17370 bound_to 10713
  156.8440  130.5057  149.5318 LP  0  0  0  0  0  0  0  0  0  0  0  0  # atno 17371 bound_to 10713
  140.1394  134.9304  157.2446 LP  0  0  0  0  0  0  0  0  0  0  0  0  # atno 17394 bound_to 11000
  140.2855  134.3300  155.7330 LP  0  0  0  0  0  0  0  0  0  0  0  0  # atno 17395 bound_to 11000

$$$$
