AV-unprocessed.smi:188|AV-procd|sdf|1472|dock5
  -GOLD-   2262019293D 1   1.00000     0.00000
 Structure written by MMmdl.
 49 53  0  0  0  0  0  0  0  0  1 V2000
  146.8329  130.9138  156.1865 O   0  0  0  0  0  0  0  0  0  0  0  0
  147.6313  131.8444  156.2651 C   0  0  0  0  0  0  0  0  0  0  0  0
  148.7105  131.8910  157.0514 N   0  0  0  0  0  0  0  0  0  0  0  0
  149.3878  133.0302  156.9216 C   0  0  0  0  0  0  0  0  0  0  0  0
  150.4159  133.3403  157.5210 O   0  0  0  0  0  0  0  0  0  0  0  0
  148.6662  133.8995  155.8923 C   0  0  0  0  0  0  0  0  0  0  0  0
  149.5200  134.1913  154.6364 C   0  0  0  0  0  0  0  0  0  0  0  0
  150.6015  135.2573  154.8947 C   0  0  0  0  0  0  0  0  0  0  0  0
  150.0196  136.4666  155.4769 N   0  0  0  0  0  0  0  0  0  0  0  0
  150.8227  137.5598  155.4201 C   0  0  0  0  0  0  0  0  0  0  0  0
  152.0629  137.4638  154.8697 N   0  0  0  0  0  0  0  0  0  0  0  0
  152.8546  138.5375  154.7962 C   0  0  0  0  0  0  0  0  0  0  0  0
  152.6119  139.7826  155.2092 N   0  0  0  0  0  0  0  0  0  0  0  0
  151.3757  139.8848  155.7750 C   0  0  0  0  0  0  0  0  0  0  0  0
  150.4250  138.8337  155.9162 C   0  0  0  0  0  0  0  0  0  0  0  0
  149.2813  139.3129  156.5441 N   0  0  0  0  0  0  0  0  0  0  0  0
  149.5371  140.5755  156.7523 C   0  0  0  0  0  0  0  0  0  0  0  0
  150.7768  141.0022  156.3311 N   0  0  0  0  0  0  0  0  0  0  0  0
  151.3142  142.3502  156.4450 C   0  0  0  0  0  0  0  0  0  0  0  0
  151.3265  142.9095  157.8836 C   0  0  0  0  0  0  0  0  0  0  0  0
  149.8945  143.0554  158.4283 C   0  0  0  0  0  0  0  0  0  0  0  0
  149.8927  143.5816  159.7403 O   0  0  0  0  0  0  0  0  0  0  0  0
  152.3080  142.2415  158.8578 C   0  0  0  0  0  0  0  0  0  0  0  0
  152.8570  143.5130  159.2624 O   0  0  0  0  0  0  0  0  0  0  0  0
  152.2299  144.1285  158.1177 C   0  0  0  0  0  0  0  0  0  0  0  0
  149.2466  136.2607  156.7034 C   0  0  0  0  0  0  0  0  0  0  0  0
  148.1304  135.2228  156.4853 C   0  0  0  0  0  0  0  0  0  0  0  0
  147.5732  132.9926  155.5771 N   0  0  0  0  0  0  0  0  0  0  0  0
  148.9825  131.1452  157.6751 H   0  0  0  0  0  0  0  0  0  0  0  0
  149.9902  133.2775  154.2700 H   0  0  0  0  0  0  0  0  0  0  0  0
  148.8693  134.5378  153.8321 H   0  0  0  0  0  0  0  0  0  0  0  0
  151.3613  134.8712  155.5747 H   0  0  0  0  0  0  0  0  0  0  0  0
  151.1134  135.4756  153.9581 H   0  0  0  0  0  0  0  0  0  0  0  0
  153.8207  138.3752  154.3416 H   0  0  0  0  0  0  0  0  0  0  0  0
  148.8266  141.2334  157.2314 H   0  0  0  0  0  0  0  0  0  0  0  0
  152.3219  142.3426  156.0280 H   0  0  0  0  0  0  0  0  0  0  0  0
  150.7353  143.0024  155.7899 H   0  0  0  0  0  0  0  0  0  0  0  0
  149.2805  143.6876  157.7868 H   0  0  0  0  0  0  0  0  0  0  0  0
  149.3960  142.0858  158.4580 H   0  0  0  0  0  0  0  0  0  0  0  0
  150.1159  144.4990  159.6961 H   0  0  0  0  0  0  0  0  0  0  0  0
  151.8284  141.7069  159.6785 H   0  0  0  0  0  0  0  0  0  0  0  0
  153.0640  141.6193  158.3770 H   0  0  0  0  0  0  0  0  0  0  0  0
  152.9456  144.3108  157.3142 H   0  0  0  0  0  0  0  0  0  0  0  0
  151.6911  145.0416  158.3738 H   0  0  0  0  0  0  0  0  0  0  0  0
  149.9145  135.9385  157.5029 H   0  0  0  0  0  0  0  0  0  0  0  0
  148.7999  137.2032  157.0234 H   0  0  0  0  0  0  0  0  0  0  0  0
  147.3844  135.6435  155.8095 H   0  0  0  0  0  0  0  0  0  0  0  0
  147.6131  135.0413  157.4286 H   0  0  0  0  0  0  0  0  0  0  0  0
  146.8521  133.2182  154.9073 H   0  0  0  0  0  0  0  0  0  0  0  0
  1  2  2  0  0  0  0
  2 28  1  0  0  0  0
  2  3  1  0  0  0  0
  3  4  1  0  0  0  0
  3 29  1  0  0  0  0
  4  5  2  0  0  0  0
  4  6  1  0  0  0  0
  6 27  1  0  0  0  0
  6  7  1  0  0  0  0
  6 28  1  0  0  0  0
  7  8  1  0  0  0  0
  7 30  1  0  0  0  0
  7 31  1  0  0  0  0
  8  9  1  0  0  0  0
  8 32  1  0  0  0  0
  8 33  1  0  0  0  0
  9 10  1  0  0  0  0
  9 26  1  0  0  0  0
 10 15  1  0  0  0  0
 10 11  2  0  0  0  0
 11 12  1  0  0  0  0
 12 13  2  0  0  0  0
 12 34  1  0  0  0  0
 13 14  1  0  0  0  0
 14 18  1  0  0  0  0
 14 15  2  0  0  0  0
 15 16  1  0  0  0  0
 16 17  2  0  0  0  0
 17 18  1  0  0  0  0
 17 35  1  0  0  0  0
 18 19  1  0  0  0  0
 19 20  1  0  0  0  0
 19 36  1  0  0  0  0
 19 37  1  0  0  0  0
 20 25  1  0  0  0  0
 20 21  1  0  0  0  0
 20 23  1  0  0  0  0
 21 22  1  0  0  0  0
 21 38  1  0  0  0  0
 21 39  1  0  0  0  0
 22 40  1  0  0  0  0
 23 24  1  0  0  0  0
 23 41  1  0  0  0  0
 23 42  1  0  0  0  0
 24 25  1  0  0  0  0
 25 43  1  0  0  0  0
 25 44  1  0  0  0  0
 26 27  1  0  0  0  0
 26 45  1  0  0  0  0
 26 46  1  0  0  0  0
 27 47  1  0  0  0  0
 27 48  1  0  0  0  0
 28 49  1  0  0  0  0
M  END
> <s_m_source_file>
AV-unprocessed.smi

> <i_m_source_file_index>
188

> <i_lp_mmshare_version>
43012

> <i_f3d_flags>
0

> <s_epik_input>
Tz1DKFtOSF0xKVtOSF1DKD1PKUMxMltDSDJdW0NIMl1OKFtDSDJdW0NIMl0yKWMobltjSF1uMyljKGMzNCluW2NIXW40W0NIMl1DNShbQ0gyXVtPSF0pW0NIMl1PW0NIMl01

> <s_epik_cmdline>
J2VwaWtfcHl0aG9uJywgJy1waCcsICc3LjAnLCAnLXRuJywgJzgnLCAnLW1hJywgJzIwMCcsICctbWV0YWxfYmluZGluZycsICctaW1hZScsICc8aW5maWxlLm1hZT4nLCAnLW9tYWUnLCAnPG91dGZpbGUubWFlPic=

> <r_lp_tautomer_probability>
1

> <r_epik_Ionization_Penalty>
0.00868263

> <r_epik_Ionization_Penalty_Charging>
0

> <r_epik_Ionization_Penalty_Neutral>
0.00868263

> <r_epik_State_Penalty>
0.00519311

> <r_epik_Charging_Adjusted_Penalty>
0.00519311

> <i_epik_Tot_Q>
0

> <i_epik_Tot_abs_Q>
0

> <r_epik_Metal_State_Penalty>
0.404007

> <b_epik_Metal_Only>
0

> <s_lp_Force_Field>
OPLS_2005

> <r_lp_Energy>
48.5208

> <b_lp_Chiralities_Consistent>
1

> <s_lp_Variant>
AV-unprocessed.smi:188-1

> <Gold.Version>
5.8.1

> <Gold.Id.Protein>
6NUR|6NUR_protein|mol2

> <Gold.PLP.Fitness>
43.6684

> <Gold.PLP.PLP>
-35.6052

> <Gold.PLP.part.hbond>
-5.0000

> <Gold.PLP.part.metal>
0.0000

> <Gold.PLP.part.buried>
-6.3656

> <Gold.PLP.part.nonpolar>
-25.5519

> <Gold.PLP.part.repulsive>
0.3072

> <Gold.PLP.ligand.clash>
0.0000

> <Gold.PLP.ligand.torsion>
0.4648

> <Gold.PLP.Chemscore.Hbond>
2.7545

> <Gold.PLP.Chemscore.CHOScore>
0.0000

> <Gold.PLP.Chemscore.Metal>
0.0000

> <Gold.Chemscore.Hbonds>
donor molecule, donor type, donor heavy atom, donor atom, acceptor molecule, acceptor atom, score
      P1  H  6896  6908       L1     5  1.00
      P1  H  7989  7998       L1    13  0.08
      P1  H  7997  8008       L1    13  0.95
      P1  H 10752 10763       L1    11  0.74

> <Gold.PLP.Chemscore.Internal.Correction>
0.7293

> <Gold.Rescore>
     Score         DG    S(hbond)    S(metal)    S(lipo)     H(rot)  DE(clash)    DE(int)     intcor
     10.98     -13.28       2.26        0.00      65.07       2.88       0.13       2.17       ----

> <Gold.Chemscore.Fitness>
10.9765

> <Gold.Chemscore.DG>
-13.2791

> <Gold.Chemscore.ZeroCoef>
-5.4800

> <Gold.Chemscore.Hbond>
2.2606

> <Gold.Chemscore.Metal>
0.0000

> <Gold.Chemscore.Lipo>
65.0746

> <Gold.Chemscore.Internal_Hbond>
0.0000

> <Gold.Chemscore.DEClash>
0.1334

> <Gold.Chemscore.DEInternal>
2.1691

> <Gold.Chemscore.Rot>
2.8770

> <Gold.Chemscore.Internal.Correction>
   9.000000E+99

> <Gold.Chemscore.Hbonds>
donor molecule, donor type, donor heavy atom, donor atom, acceptor molecule, acceptor atom, score
      P1  H  6896  6908       L1     5  0.96
      P1  H  7997  8008       L1    13  0.20
      P1  H 10752 10763       L1    11  0.66

> <Gold.Chemscore.Hbond.Weighted>
-7.5504

> <Gold.Chemscore.Metal.Weighted>
-0.0000

> <Gold.Chemscore.Lipo.Weighted>
-7.6137

> <Gold.Chemscore.Internal_Hbond.Weighted>
0.0000

> <Gold.Chemscore.DEClash.Weighted>
0.1334

> <Gold.Chemscore.DEInternal.Weighted>
2.1691

> <Gold.Chemscore.Rot.Weighted>
7.3651

> <Gold.Chemscore.Internal.Correction.Weighted>
   9.000000E+99

> <Gold.Protein.RotatedTorsions>
[ 6907 6896 6895 6894 ] final  101.07 input  -60.11 | X-H torsion
[ 7974 7965 7964 7962 ] final -119.59 input  175.53 | X-H torsion
[ 8008 7997 7996 7995 ] final  -35.35 input   59.86 | X-H torsion
[ 10167 10162 10161 10158 ] final   11.32 input  -65.29 | X-H torsion
[ 10718 10713 10712 10709 ] final  -66.04 input   66.30 | X-H torsion
[ 10763 10752 10751 10750 ] final   52.90 input  -60.55 | X-H torsion
[ 11005 11000 10999 10996 ] final -139.47 input  -57.11 | X-H torsion

> <Gold.Protein.ActiveResidues>
 VAL166  LYS551  ARG553  GLY616  TRP617  ASP618  TYR619  PRO620  LYS621  CYS622 
 ASP623  PHE694  ASN695  SER759  ASP760  ASP761  ALA762  ILE779  LEU786  VAL792 
 PHE793  MET794  SER795  GLU796  ALA797  LYS798  CYS799  TRP800  GLU811  SER814 

> <Gold.Protein.RotatedAtoms>
  152.5358  134.0182  159.7969 H   0  0  0  0  0  0  0  0  0  0  0  0  # atno 6907 bound_to 6896
  151.0373  133.5729  159.2662 H   0  0  0  0  0  0  0  0  0  0  0  0  # atno 6908 bound_to 6896
  151.2712  135.0692  159.9188 H   0  0  0  0  0  0  0  0  0  0  0  0  # atno 6909 bound_to 6896
  145.0608  140.8288  143.4153 H   0  0  0  0  0  0  0  0  0  0  0  0  # atno 7974 bound_to 7965
  154.4098  140.1659  156.2197 H   0  0  0  0  0  0  0  0  0  0  0  0  # atno 8008 bound_to 7997
  155.9374  140.3410  155.6276 H   0  0  0  0  0  0  0  0  0  0  0  0  # atno 8009 bound_to 7997
  155.7032  140.0747  157.2392 H   0  0  0  0  0  0  0  0  0  0  0  0  # atno 8010 bound_to 7997
  140.6139  143.8349  150.7096 H   0  0  0  0  0  0  0  0  0  0  0  0  # atno 10167 bound_to 10162
  156.0635  130.4256  150.1651 H   0  0  0  0  0  0  0  0  0  0  0  0  # atno 10718 bound_to 10713
  152.9791  135.5797  154.4654 H   0  0  0  0  0  0  0  0  0  0  0  0  # atno 10763 bound_to 10752
  154.4224  135.2772  155.1968 H   0  0  0  0  0  0  0  0  0  0  0  0  # atno 10764 bound_to 10752
  154.3711  135.6167  153.5794 H   0  0  0  0  0  0  0  0  0  0  0  0  # atno 10765 bound_to 10752
  140.8517  134.2278  157.4757 H   0  0  0  0  0  0  0  0  0  0  0  0  # atno 11005 bound_to 11000
  145.1411  139.2571  143.5489 LP  0  0  0  0  0  0  0  0  0  0  0  0  # atno 17320 bound_to 7965
  146.3524  140.1089  142.8605 LP  0  0  0  0  0  0  0  0  0  0  0  0  # atno 17321 bound_to 7965
  140.1924  143.4026  152.1853 LP  0  0  0  0  0  0  0  0  0  0  0  0  # atno 17342 bound_to 10162
  139.5383  144.7231  151.4819 LP  0  0  0  0  0  0  0  0  0  0  0  0  # atno 17343 bound_to 10162
  156.9715  130.9836  151.3458 LP  0  0  0  0  0  0  0  0  0  0  0  0  # atno 17370 bound_to 10713
  157.5660  130.8278  149.8329 LP  0  0  0  0  0  0  0  0  0  0  0  0  # atno 17371 bound_to 10713
  139.8704  134.9686  156.4638 LP  0  0  0  0  0  0  0  0  0  0  0  0  # atno 17394 bound_to 11000
  140.8783  133.7937  155.9439 LP  0  0  0  0  0  0  0  0  0  0  0  0  # atno 17395 bound_to 11000

$$$$
