AV-unprocessed.smi:2997|AV-procd|sdf|11412|dock1
  -GOLD-   2272016333D 1   1.00000     0.00000
 Structure written by MMmdl.
 38 40  0  0  0  0  0  0  0  0  1 V2000
  153.5336  142.9118  163.4105 C   0  0  0  0  0  0  0  0  0  0  0  0
  153.0357  142.9307  161.9761 C   0  0  0  0  0  0  0  0  0  0  0  0
  152.3308  144.0626  161.5084 C   0  0  0  0  0  0  0  0  0  0  0  0
  151.8548  144.1216  160.1801 C   0  0  0  0  0  0  0  0  0  0  0  0
  151.1528  145.1157  159.5198 N   0  0  0  0  0  0  0  0  0  0  0  0
  151.0066  144.5818  158.3103 C   0  0  0  0  0  0  0  0  0  0  0  0
  151.5298  143.3569  158.1098 N   0  0  0  0  0  0  0  0  0  0  0  0
  151.4983  142.5780  156.8851 C   0  0  0  0  0  0  0  0  0  0  0  0
  150.4053  141.4934  156.9066 C   0  0  2  0  0  0  0  0  0  0  0  0
  150.8159  140.4222  157.7360 O   0  0  0  0  0  0  0  0  0  0  0  0
  150.0878  140.9684  155.4936 C   0  0  0  0  0  0  0  0  0  0  0  0
  150.9165  139.8341  155.1241 N   0  0  0  0  0  0  0  0  0  0  0  0
  150.5193  138.6190  154.6071 C   0  0  0  0  0  0  0  0  0  0  0  0
  151.6449  137.8685  154.4221 C   0  0  0  0  0  0  0  0  0  0  0  0
  152.6958  138.7217  154.8607 C   0  0  0  0  0  0  0  0  0  0  0  0
  152.2567  139.8974  155.2803 N   0  0  0  0  0  0  0  0  0  0  0  0
  152.1054  143.0081  159.3262 C   0  0  0  0  0  0  0  0  0  0  0  0
  152.8041  141.8756  159.7802 C   0  0  0  0  0  0  0  0  0  0  0  0
  153.2720  141.8327  161.1103 C   0  0  0  0  0  0  0  0  0  0  0  0
  154.0227  140.6039  161.5926 C   0  0  0  0  0  0  0  0  0  0  0  0
  153.2598  143.8253  163.9392 H   0  0  0  0  0  0  0  0  0  0  0  0
  154.6200  142.8234  163.4362 H   0  0  0  0  0  0  0  0  0  0  0  0
  153.1045  142.0698  163.9538 H   0  0  0  0  0  0  0  0  0  0  0  0
  152.1497  144.8986  162.1679 H   0  0  0  0  0  0  0  0  0  0  0  0
  150.4921  145.1124  157.5222 H   0  0  0  0  0  0  0  0  0  0  0  0
  151.3331  143.2629  156.0527 H   0  0  0  0  0  0  0  0  0  0  0  0
  152.4808  142.1297  156.7295 H   0  0  0  0  0  0  0  0  0  0  0  0
  149.4960  141.9154  157.3368 H   0  0  0  0  0  0  0  0  0  0  0  0
  150.4595  139.6192  157.3867 H   0  0  0  0  0  0  0  0  0  0  0  0
  149.0449  140.6539  155.4383 H   0  0  0  0  0  0  0  0  0  0  0  0
  150.2133  141.7600  154.7528 H   0  0  0  0  0  0  0  0  0  0  0  0
  149.4805  138.3921  154.4177 H   0  0  0  0  0  0  0  0  0  0  0  0
  151.7081  136.8630  154.0333 H   0  0  0  0  0  0  0  0  0  0  0  0
  153.7570  138.5225  154.8867 H   0  0  0  0  0  0  0  0  0  0  0  0
  152.9778  141.0475  159.1090 H   0  0  0  0  0  0  0  0  0  0  0  0
  154.1367  139.8690  160.7951 H   0  0  0  0  0  0  0  0  0  0  0  0
  153.4859  140.1266  162.4127 H   0  0  0  0  0  0  0  0  0  0  0  0
  155.0189  140.8754  161.9420 H   0  0  0  0  0  0  0  0  0  0  0  0
  1  2  1  0  0  0  0
  1 21  1  0  0  0  0
  1 22  1  0  0  0  0
  1 23  1  0  0  0  0
  2 19  1  0  0  0  0
  2  3  2  0  0  0  0
  3  4  1  0  0  0  0
  3 24  1  0  0  0  0
  4 17  2  0  0  0  0
  4  5  1  0  0  0  0
  5  6  2  0  0  0  0
  6  7  1  0  0  0  0
  6 25  1  0  0  0  0
  7  8  1  0  0  0  0
  7 17  1  0  0  0  0
  8  9  1  0  0  0  0
  8 26  1  0  0  0  0
  8 27  1  0  0  0  0
  9 10  1  0  0  0  0
  9 11  1  0  0  0  0
  9 28  1  0  0  0  0
 10 29  1  0  0  0  0
 11 12  1  0  0  0  0
 11 30  1  0  0  0  0
 11 31  1  0  0  0  0
 12 16  1  0  0  0  0
 12 13  1  0  0  0  0
 13 14  2  0  0  0  0
 13 32  1  0  0  0  0
 14 15  1  0  0  0  0
 14 33  1  0  0  0  0
 15 16  2  0  0  0  0
 15 34  1  0  0  0  0
 17 18  1  0  0  0  0
 18 19  2  0  0  0  0
 18 35  1  0  0  0  0
 19 20  1  0  0  0  0
 20 36  1  0  0  0  0
 20 37  1  0  0  0  0
 20 38  1  0  0  0  0
M  END
> <s_m_source_file>
AV-unprocessed.smi

> <i_m_source_file_index>
2997

> <i_lp_mmshare_version>
43012

> <i_f3d_flags>
0

> <s_epik_input>
W0NIM11jKFtjSF0xKWMoW0NIM10pW2NIXWMoYzEyKW4oW2NIXW4yKVtDSDJdW0NASF0oW09IXSlbQ0gyXW4zW2NIXVtjSF1bY0hdbjM=

> <s_epik_cmdline>
J2VwaWtfcHl0aG9uJywgJy1waCcsICc3LjAnLCAnLXRuJywgJzgnLCAnLW1hJywgJzIwMCcsICctbWV0YWxfYmluZGluZycsICctaW1hZScsICc8aW5maWxlLm1hZT4nLCAnLW9tYWUnLCAnPG91dGZpbGUubWFlPic=

> <r_lp_tautomer_probability>
1

> <r_epik_Ionization_Penalty>
0.102113

> <r_epik_Ionization_Penalty_Charging>
0

> <r_epik_Ionization_Penalty_Neutral>
0.102113

> <r_epik_State_Penalty>
0.0920694

> <r_epik_Charging_Adjusted_Penalty>
0.0920694

> <i_epik_Tot_Q>
0

> <i_epik_Tot_abs_Q>
0

> <r_epik_Metal_State_Penalty>
0.0784306

> <b_epik_Metal_Only>
0

> <s_lp_Force_Field>
OPLS_2005

> <r_lp_Energy>
8.0564

> <b_lp_Chiralities_Consistent>
1

> <s_lp_Variant>
AV-unprocessed.smi:2997-1

> <Gold.Version>
5.8.1

> <Gold.Id.Protein>
6NUR|6NUR_protein|mol2

> <Gold.PLP.Fitness>
56.1454

> <Gold.PLP.PLP>
-55.0363

> <Gold.PLP.part.hbond>
-1.1400

> <Gold.PLP.part.metal>
0.0000

> <Gold.PLP.part.buried>
-6.8245

> <Gold.PLP.part.nonpolar>
-47.6499

> <Gold.PLP.part.repulsive>
0.1444

> <Gold.PLP.ligand.clash>
0.0000

> <Gold.PLP.ligand.torsion>
0.8546

> <Gold.PLP.Chemscore.Hbond>
0.0878

> <Gold.PLP.Chemscore.CHOScore>
0.8484

> <Gold.PLP.Chemscore.Metal>
0.0000

> <Gold.Chemscore.Hbonds>
donor molecule, donor type, donor heavy atom, donor atom, acceptor molecule, acceptor atom, score
      P1  H  7997  8010       L1    16  0.10
      L1  C     6    25       P1  8028  0.77
      L1  C     6    25       P1  8029  0.09

> <Gold.PLP.Chemscore.Internal.Correction>
0.0101

> <Gold.Rescore>
     Score         DG    S(hbond)    S(metal)    S(lipo)     H(rot)  DE(clash)    DE(int)     intcor
     14.96     -15.78       0.00        0.00     135.13       2.15       0.12       0.70       ----

> <Gold.Chemscore.Fitness>
14.9586

> <Gold.Chemscore.DG>
-15.7802

> <Gold.Chemscore.ZeroCoef>
-5.4800

> <Gold.Chemscore.Hbond>
0.0010

> <Gold.Chemscore.Metal>
0.0000

> <Gold.Chemscore.Lipo>
135.1258

> <Gold.Chemscore.Internal_Hbond>
0.0000

> <Gold.Chemscore.DEClash>
0.1185

> <Gold.Chemscore.DEInternal>
0.7031

> <Gold.Chemscore.Rot>
2.1534

> <Gold.Chemscore.Internal.Correction>
   9.000000E+99

> <Gold.Chemscore.Hbond.Weighted>
-0.0032

> <Gold.Chemscore.Metal.Weighted>
-0.0000

> <Gold.Chemscore.Lipo.Weighted>
-15.8097

> <Gold.Chemscore.Internal_Hbond.Weighted>
0.0000

> <Gold.Chemscore.DEClash.Weighted>
0.1185

> <Gold.Chemscore.DEInternal.Weighted>
0.7031

> <Gold.Chemscore.Rot.Weighted>
5.5127

> <Gold.Chemscore.Internal.Correction.Weighted>
   9.000000E+99

> <Gold.Protein.RotatedTorsions>
[ 6907 6896 6895 6894 ] final  141.09 input  -60.11 | X-H torsion
[ 7974 7965 7964 7962 ] final   65.73 input  175.53 | X-H torsion
[ 8008 7997 7996 7995 ] final   84.94 input   59.86 | X-H torsion
[ 10167 10162 10161 10158 ] final    7.11 input  -65.29 | X-H torsion
[ 10718 10713 10712 10709 ] final  171.24 input   66.30 | X-H torsion
[ 10763 10752 10751 10750 ] final  -44.50 input  -60.55 | X-H torsion
[ 11005 11000 10999 10996 ] final -134.56 input  -57.11 | X-H torsion

> <Gold.Protein.ActiveResidues>
 VAL166  LYS551  ARG553  GLY616  TRP617  ASP618  TYR619  PRO620  LYS621  CYS622 
 ASP623  PHE694  ASN695  SER759  ASP760  ASP761  ALA762  ILE779  LEU786  VAL792 
 PHE793  MET794  SER795  GLU796  ALA797  LYS798  CYS799  TRP800  GLU811  SER814 

> <Gold.Protein.RotatedAtoms>
  152.2352  133.5090  159.5238 H   0  0  0  0  0  0  0  0  0  0  0  0  # atno 6907 bound_to 6896
  150.7048  134.1163  159.4027 H   0  0  0  0  0  0  0  0  0  0  0  0  # atno 6908 bound_to 6896
  151.9084  135.0349  160.0563 H   0  0  0  0  0  0  0  0  0  0  0  0  # atno 6909 bound_to 6896
  145.8350  139.3161  143.0965 H   0  0  0  0  0  0  0  0  0  0  0  0  # atno 7974 bound_to 7965
  155.9436  140.3406  155.6348 H   0  0  0  0  0  0  0  0  0  0  0  0  # atno 8008 bound_to 7997
  155.7009  140.0760  157.2429 H   0  0  0  0  0  0  0  0  0  0  0  0  # atno 8009 bound_to 7997
  154.4107  140.1640  156.2177 H   0  0  0  0  0  0  0  0  0  0  0  0  # atno 8010 bound_to 7997
  140.6390  143.7818  150.7401 H   0  0  0  0  0  0  0  0  0  0  0  0  # atno 10167 bound_to 10162
  156.9964  131.0163  151.2843 H   0  0  0  0  0  0  0  0  0  0  0  0  # atno 10718 bound_to 10713
  154.0131  135.6679  153.4767 H   0  0  0  0  0  0  0  0  0  0  0  0  # atno 10763 bound_to 10752
  153.0612  135.5027  154.8094 H   0  0  0  0  0  0  0  0  0  0  0  0  # atno 10764 bound_to 10752
  154.6983  135.3074  154.9342 H   0  0  0  0  0  0  0  0  0  0  0  0  # atno 10765 bound_to 10752
  140.8978  134.1729  157.4482 H   0  0  0  0  0  0  0  0  0  0  0  0  # atno 11005 bound_to 11000
  145.9528  140.8895  143.0250 LP  0  0  0  0  0  0  0  0  0  0  0  0  # atno 17320 bound_to 7965
  144.6737  140.1704  143.7415 LP  0  0  0  0  0  0  0  0  0  0  0  0  # atno 17321 bound_to 7965
  140.1446  143.4411  152.2171 LP  0  0  0  0  0  0  0  0  0  0  0  0  # atno 17342 bound_to 10162
  139.5600  144.7399  151.4183 LP  0  0  0  0  0  0  0  0  0  0  0  0  # atno 17343 bound_to 10162
  157.5422  130.8127  149.8042 LP  0  0  0  0  0  0  0  0  0  0  0  0  # atno 17370 bound_to 10713
  156.0187  130.3803  150.2028 LP  0  0  0  0  0  0  0  0  0  0  0  0  # atno 17371 bound_to 10713
  139.8738  134.9886  156.5418 LP  0  0  0  0  0  0  0  0  0  0  0  0  # atno 17394 bound_to 11000
  140.8267  133.8311  155.8946 LP  0  0  0  0  0  0  0  0  0  0  0  0  # atno 17395 bound_to 11000

$$$$
