AV-unprocessed.smi:136|AV-procd|sdf|1171|dock9
  -GOLD-   2262018313D 1   1.00000     0.00000
 Structure written by MMmdl.
 54 58  0  0  0  0  0  0  0  0  1 V2000
  154.4792  135.8868  156.9491 O   0  0  0  0  0  0  0  0  0  0  0  0
  154.5667  137.1075  157.0960 C   0  0  0  0  0  0  0  0  0  0  0  0
  155.9058  137.8201  156.8106 C   0  0  0  0  0  0  0  0  0  0  0  0
  156.5983  137.3069  155.6076 N   0  0  0  0  0  0  0  0  0  0  0  0
  156.5904  138.0985  154.4321 C   0  0  0  0  0  0  0  0  0  0  0  0
  156.0376  139.1991  154.4071 O   0  0  0  0  0  0  0  0  0  0  0  0
  157.2640  137.5169  153.2765 C   0  0  0  0  0  0  0  0  0  0  0  0
  157.3072  138.1987  152.1192 F   0  0  0  0  0  0  0  0  0  0  0  0
  157.8442  136.3014  153.3488 C   0  0  0  0  0  0  0  0  0  0  0  0
  157.8408  135.5377  154.5024 N   0  0  0  0  0  0  0  0  0  0  0  0
  158.4901  134.1717  154.5646 C   0  0  2  0  0  0  0  0  0  0  0  0
  160.0037  134.2811  154.3041 C   0  0  0  0  0  0  0  0  0  0  0  0
  160.2347  133.2258  153.2416 C   0  0  0  0  0  0  0  0  0  0  0  0
  158.9007  133.2196  152.5104 C   0  0  0  0  0  0  0  0  0  0  0  0
  157.9586  133.3457  153.5674 O   0  0  0  0  0  0  0  0  0  0  0  0
  157.2054  136.0300  155.6630 C   0  0  0  0  0  0  0  0  0  0  0  0
  157.1798  135.3580  156.6967 O   0  0  0  0  0  0  0  0  0  0  0  0
  153.5184  137.8525  157.5120 N   0  0  0  0  0  0  0  0  0  0  0  0
  153.6104  139.1759  157.7986 N   0  0  0  0  0  0  0  0  0  0  0  0
  152.4941  139.5948  158.2690 C   0  0  0  0  0  0  0  0  0  0  0  0
  152.2265  140.9913  158.6787 C   0  0  0  0  0  0  0  0  0  0  0  0
  153.1324  141.6481  159.5423 C   0  0  0  0  0  0  0  0  0  0  0  0
  152.8814  142.9800  159.9266 C   0  0  0  0  0  0  0  0  0  0  0  0
  151.7348  143.6496  159.4540 C   0  0  0  0  0  0  0  0  0  0  0  0
  151.4342  145.2814  159.9267 Cl  0  0  0  0  0  0  0  0  0  0  0  0
  150.8334  142.9888  158.5952 C   0  0  0  0  0  0  0  0  0  0  0  0
  151.0741  141.6574  158.2033 C   0  0  0  0  0  0  0  0  0  0  0  0
  151.4459  138.5378  158.3640 C   0  0  0  0  0  0  0  0  0  0  0  0
  152.1776  137.3227  157.7897 C   0  0  1  0  0  0  0  0  0  0  0  0
  151.5053  136.7537  156.5746 C   0  0  0  0  0  0  0  0  0  0  0  0
  150.9652  135.5308  156.2875 C   0  0  0  0  0  0  0  0  0  0  0  0
  150.4674  135.6138  154.9577 C   0  0  0  0  0  0  0  0  0  0  0  0
  150.7348  136.8843  154.5338 C   0  0  0  0  0  0  0  0  0  0  0  0
  151.3627  137.5942  155.5093 O   0  0  0  0  0  0  0  0  0  0  0  0
  155.7236  138.8917  156.7127 H   0  0  0  0  0  0  0  0  0  0  0  0
  156.5399  137.7362  157.6944 H   0  0  0  0  0  0  0  0  0  0  0  0
  158.3228  135.9269  152.4571 H   0  0  0  0  0  0  0  0  0  0  0  0
  158.2326  133.7618  155.5429 H   0  0  0  0  0  0  0  0  0  0  0  0
  160.2490  135.2710  153.9155 H   0  0  0  0  0  0  0  0  0  0  0  0
  160.5730  134.1073  155.2176 H   0  0  0  0  0  0  0  0  0  0  0  0
  161.0784  133.4527  152.5894 H   0  0  0  0  0  0  0  0  0  0  0  0
  160.4107  132.2551  153.7071 H   0  0  0  0  0  0  0  0  0  0  0  0
  158.8258  134.0726  151.8347 H   0  0  0  0  0  0  0  0  0  0  0  0
  158.7382  132.3083  151.9347 H   0  0  0  0  0  0  0  0  0  0  0  0
  154.0178  141.1527  159.9140 H   0  0  0  0  0  0  0  0  0  0  0  0
  153.5716  143.4881  160.5838 H   0  0  0  0  0  0  0  0  0  0  0  0
  149.9551  143.5036  158.2342 H   0  0  0  0  0  0  0  0  0  0  0  0
  150.3682  141.1742  157.5445 H   0  0  0  0  0  0  0  0  0  0  0  0
  151.1440  138.3710  159.3986 H   0  0  0  0  0  0  0  0  0  0  0  0
  150.5642  138.8052  157.7797 H   0  0  0  0  0  0  0  0  0  0  0  0
  152.2582  136.5504  158.5568 H   0  0  0  0  0  0  0  0  0  0  0  0
  150.9364  134.6801  156.9520 H   0  0  0  0  0  0  0  0  0  0  0  0
  149.9757  134.8422  154.3839 H   0  0  0  0  0  0  0  0  0  0  0  0
  150.5555  137.4226  153.6150 H   0  0  0  0  0  0  0  0  0  0  0  0
  1  2  2  0  0  0  0
  2  3  1  0  0  0  0
  2 18  1  0  0  0  0
  3  4  1  0  0  0  0
  3 35  1  0  0  0  0
  3 36  1  0  0  0  0
  4 16  1  0  0  0  0
  4  5  1  0  0  0  0
  5  6  2  0  0  0  0
  5  7  1  0  0  0  0
  7  8  1  0  0  0  0
  7  9  2  0  0  0  0
  9 10  1  0  0  0  0
  9 37  1  0  0  0  0
 10 11  1  0  0  0  0
 10 16  1  0  0  0  0
 11 15  1  0  0  0  0
 11 12  1  0  0  0  0
 11 38  1  0  0  0  0
 12 13  1  0  0  0  0
 12 39  1  0  0  0  0
 12 40  1  0  0  0  0
 13 14  1  0  0  0  0
 13 41  1  0  0  0  0
 13 42  1  0  0  0  0
 14 15  1  0  0  0  0
 14 43  1  0  0  0  0
 14 44  1  0  0  0  0
 16 17  2  0  0  0  0
 18 29  1  0  0  0  0
 18 19  1  0  0  0  0
 19 20  2  0  0  0  0
 20 21  1  0  0  0  0
 20 28  1  0  0  0  0
 21 27  1  0  0  0  0
 21 22  2  0  0  0  0
 22 23  1  0  0  0  0
 22 45  1  0  0  0  0
 23 24  2  0  0  0  0
 23 46  1  0  0  0  0
 24 25  1  0  0  0  0
 24 26  1  0  0  0  0
 26 27  2  0  0  0  0
 26 47  1  0  0  0  0
 27 48  1  0  0  0  0
 28 29  1  0  0  0  0
 28 49  1  0  0  0  0
 28 50  1  0  0  0  0
 29 30  1  0  0  0  0
 29 51  1  0  0  0  0
 30 34  1  0  0  0  0
 30 31  2  0  0  0  0
 31 32  1  0  0  0  0
 31 52  1  0  0  0  0
 32 33  2  0  0  0  0
 32 53  1  0  0  0  0
 33 34  1  0  0  0  0
 33 54  1  0  0  0  0
M  END
> <s_m_source_file>
AV-unprocessed.smi

> <i_m_source_file_index>
136

> <i_lp_mmshare_version>
43012

> <i_f3d_flags>
0

> <s_epik_input>
bzFbY0hdW2NIXVtjSF1jMVtDQEBIXTJbQ0gyXUMoYzNbY0hdW2NIXWMoQ2wpW2NIXVtjSF0zKT1OTjJDKD1PKVtDSDJdbjRjKD1PKWMoRilbY0hdbihjND1PKVtDQEBIXTVbQ0gyXVtDSDJdW0NIMl1PNQ==

> <s_epik_cmdline>
J2VwaWtfcHl0aG9uJywgJy1waCcsICc3LjAnLCAnLXRuJywgJzgnLCAnLW1hJywgJzIwMCcsICctbWV0YWxfYmluZGluZycsICctaW1hZScsICc8aW5maWxlLm1hZT4nLCAnLW9tYWUnLCAnPG91dGZpbGUubWFlPic=

> <r_lp_tautomer_probability>
1

> <r_epik_Ionization_Penalty>
2.55467e-08

> <r_epik_Ionization_Penalty_Charging>
4.85705e-09

> <r_epik_Ionization_Penalty_Neutral>
2.06897e-08

> <r_epik_State_Penalty>
-0

> <r_epik_Charging_Adjusted_Penalty>
4.85705e-09

> <i_epik_Tot_Q>
0

> <i_epik_Tot_abs_Q>
0

> <r_epik_Metal_State_Penalty>
-0

> <b_epik_Metal_Only>
0

> <s_epik_Chemistry_Notes>
This compound has an imine and may undergo hydrolysis. This compound contains an acetal/aminal-like group ( X-CH(R)-Y where X, Y are N, S, or O) that may be acid/base labile, releasing an aldehyde.

> <s_lp_Force_Field>
OPLS_2005

> <r_lp_Energy>
40.8333

> <b_lp_Chiralities_Consistent>
1

> <s_lp_Variant>
AV-unprocessed.smi:136-1

> <Gold.Version>
5.8.1

> <Gold.Id.Protein>
6NUR|6NUR_protein|mol2

> <Gold.PLP.Fitness>
59.0578

> <Gold.PLP.PLP>
-50.5792

> <Gold.PLP.part.hbond>
-2.6789

> <Gold.PLP.part.metal>
0.0000

> <Gold.PLP.part.buried>
-4.4643

> <Gold.PLP.part.nonpolar>
-44.9314

> <Gold.PLP.part.repulsive>
0.0790

> <Gold.PLP.ligand.clash>
0.0000

> <Gold.PLP.ligand.torsion>
1.3454

> <Gold.PLP.Chemscore.Hbond>
2.9040

> <Gold.PLP.Chemscore.CHOScore>
0.8005

> <Gold.PLP.Chemscore.Metal>
0.0000

> <Gold.Chemscore.Hbonds>
donor molecule, donor type, donor heavy atom, donor atom, acceptor molecule, acceptor atom, score
      P1  H  7997  8009       L1    19  1.00
      P1  H  7997  8010       L1     6  0.83
      P1  H 10752 10763       L1     1  1.00
      L1  C    33    54       P1  7948  0.41
      L1  C    33    54       P1  7949  0.29

> <Gold.PLP.Chemscore.Internal.Correction>
0.0560

> <Gold.Rescore>
     Score         DG    S(hbond)    S(metal)    S(lipo)     H(rot)  DE(clash)    DE(int)     intcor
     24.18     -27.90       2.71        0.00     153.82       1.81       2.24       1.48       ----

> <Gold.Chemscore.Fitness>
24.1784

> <Gold.Chemscore.DG>
-27.9008

> <Gold.Chemscore.ZeroCoef>
-5.4800

> <Gold.Chemscore.Hbond>
2.7084

> <Gold.Chemscore.Metal>
0.0000

> <Gold.Chemscore.Lipo>
153.8211

> <Gold.Chemscore.Internal_Hbond>
0.0000

> <Gold.Chemscore.DEClash>
2.2385

> <Gold.Chemscore.DEInternal>
1.4839

> <Gold.Chemscore.Rot>
1.8056

> <Gold.Chemscore.Internal.Correction>
   9.000000E+99

> <Gold.Chemscore.Hbonds>
donor molecule, donor type, donor heavy atom, donor atom, acceptor molecule, acceptor atom, score
      P1  H  7997  8009       L1    19  0.85
      P1  H  7997  8010       L1     6  0.80
      P1  H 10752 10763       L1     1  0.94

> <Gold.Chemscore.Hbond.Weighted>
-9.0461

> <Gold.Chemscore.Metal.Weighted>
-0.0000

> <Gold.Chemscore.Lipo.Weighted>
-17.9971

> <Gold.Chemscore.Internal_Hbond.Weighted>
0.0000

> <Gold.Chemscore.DEClash.Weighted>
2.2385

> <Gold.Chemscore.DEInternal.Weighted>
1.4839

> <Gold.Chemscore.Rot.Weighted>
4.6223

> <Gold.Chemscore.Internal.Correction.Weighted>
   9.000000E+99

> <Gold.Protein.RotatedTorsions>
[ 6907 6896 6895 6894 ] final  109.97 input  -60.11 | X-H torsion
[ 7974 7965 7964 7962 ] final  146.93 input  175.53 | X-H torsion
[ 8008 7997 7996 7995 ] final  174.02 input   59.86 | X-H torsion
[ 10167 10162 10161 10158 ] final -139.78 input  -65.29 | X-H torsion
[ 10718 10713 10712 10709 ] final -100.49 input   66.30 | X-H torsion
[ 10763 10752 10751 10750 ] final  148.90 input  -60.55 | X-H torsion
[ 11005 11000 10999 10996 ] final   23.25 input  -57.11 | X-H torsion

> <Gold.Protein.ActiveResidues>
 VAL166  LYS551  ARG553  GLY616  TRP617  ASP618  TYR619  PRO620  LYS621  CYS622 
 ASP623  PHE694  ASN695  SER759  ASP760  ASP761  ALA762  ILE779  LEU786  VAL792 
 PHE793  MET794  SER795  GLU796  ALA797  LYS798  CYS799  TRP800  GLU811  SER814 

> <Gold.Protein.RotatedAtoms>
  152.5042  133.8867  159.7373 H   0  0  0  0  0  0  0  0  0  0  0  0  # atno 6907 bound_to 6896
  150.9316  133.6751  159.2816 H   0  0  0  0  0  0  0  0  0  0  0  0  # atno 6908 bound_to 6896
  151.4094  135.0987  159.9633 H   0  0  0  0  0  0  0  0  0  0  0  0  # atno 6909 bound_to 6896
  144.8632  139.5966  143.5921 H   0  0  0  0  0  0  0  0  0  0  0  0  # atno 7974 bound_to 7965
  156.1017  140.1445  156.9458 H   0  0  0  0  0  0  0  0  0  0  0  0  # atno 8008 bound_to 7997
  154.4707  140.0911  156.7181 H   0  0  0  0  0  0  0  0  0  0  0  0  # atno 8009 bound_to 7997
  155.4748  140.3443  155.4333 H   0  0  0  0  0  0  0  0  0  0  0  0  # atno 8010 bound_to 7997
  139.8346  143.7402  152.2665 H   0  0  0  0  0  0  0  0  0  0  0  0  # atno 10167 bound_to 10162
  156.0164  130.5330  150.6824 H   0  0  0  0  0  0  0  0  0  0  0  0  # atno 10718 bound_to 10713
  154.0624  135.2873  155.3322 H   0  0  0  0  0  0  0  0  0  0  0  0  # atno 10763 bound_to 10752
  154.6800  135.5267  153.8253 H   0  0  0  0  0  0  0  0  0  0  0  0  # atno 10764 bound_to 10752
  153.0517  135.6579  154.0811 H   0  0  0  0  0  0  0  0  0  0  0  0  # atno 10765 bound_to 10752
  140.3717  134.2016  155.7666 H   0  0  0  0  0  0  0  0  0  0  0  0  # atno 11005 bound_to 11000
  146.2876  139.7047  142.9184 LP  0  0  0  0  0  0  0  0  0  0  0  0  # atno 17320 bound_to 7965
  145.4273  141.0412  143.2930 LP  0  0  0  0  0  0  0  0  0  0  0  0  # atno 17321 bound_to 7965
  139.7620  144.7503  151.0350 LP  0  0  0  0  0  0  0  0  0  0  0  0  # atno 17342 bound_to 10162
  140.7804  143.4740  151.0107 LP  0  0  0  0  0  0  0  0  0  0  0  0  # atno 17343 bound_to 10162
  157.4523  131.0874  151.0833 LP  0  0  0  0  0  0  0  0  0  0  0  0  # atno 17370 bound_to 10713
  157.1345  130.6116  149.5538 LP  0  0  0  0  0  0  0  0  0  0  0  0  # atno 17371 bound_to 10713
  141.1952  133.8110  157.0723 LP  0  0  0  0  0  0  0  0  0  0  0  0  # atno 17394 bound_to 11000
  140.0547  134.9787  157.1199 LP  0  0  0  0  0  0  0  0  0  0  0  0  # atno 17395 bound_to 11000

$$$$
