AV-unprocessed.smi:2671|AV-procd|sdf|10348|dock2
  -GOLD-   2272014373D 1   1.00000     0.00000
 Structure written by MMmdl.
 29 30  0  0  0  0  0  0  0  0  1 V2000
  154.9738  141.0779  160.2562 O   0  0  0  0  0  0  0  0  0  0  0  0
  153.8552  141.4615  159.9225 C   0  0  0  0  0  0  0  0  0  0  0  0
  153.3508  142.8150  160.1505 C   0  0  0  0  0  0  0  0  0  0  0  0
  152.1037  143.1612  159.7481 C   0  0  0  0  0  0  0  0  0  0  0  0
  151.5603  144.5617  159.9811 C   0  0  0  0  0  0  0  0  0  0  0  0
  152.1600  145.4312  159.1679 F   0  0  0  0  0  0  0  0  0  0  0  0
  150.2516  144.5946  159.7306 F   0  0  0  0  0  0  0  0  0  0  0  0
  151.7555  144.9624  161.2385 F   0  0  0  0  0  0  0  0  0  0  0  0
  151.2732  142.2271  159.1107 N   0  0  0  0  0  0  0  0  0  0  0  0
  151.6975  141.0203  158.8988 C   0  0  0  0  0  0  0  0  0  0  0  0
  150.8455  139.6275  158.1048 S   0  0  0  0  0  0  0  0  0  0  0  0
  150.1171  140.4383  156.6523 C   0  0  0  0  0  0  0  0  0  0  0  0
  150.3110  139.6097  155.3750 C   0  0  2  0  0  0  0  0  0  0  0  0
  149.9612  138.1281  155.5190 C   0  0  0  0  0  0  0  0  0  0  0  0
  150.8017  137.5109  154.4254 C   0  0  0  0  0  0  0  0  0  0  0  0
  152.0790  138.3402  154.5120 C   0  0  0  0  0  0  0  0  0  0  0  0
  151.6815  139.6260  154.9828 O   0  0  0  0  0  0  0  0  0  0  0  0
  152.9815  140.6364  159.3013 N   0  0  0  0  0  0  0  0  0  0  0  0
  153.2801  139.6890  159.1209 H   0  0  0  0  0  0  0  0  0  0  0  0
  153.9800  143.5414  160.6440 H   0  0  0  0  0  0  0  0  0  0  0  0
  150.5573  141.4288  156.5318 H   0  0  0  0  0  0  0  0  0  0  0  0
  149.0519  140.5826  156.8362 H   0  0  0  0  0  0  0  0  0  0  0  0
  149.7327  140.0412  154.5565 H   0  0  0  0  0  0  0  0  0  0  0  0
  150.2776  137.7483  156.4917 H   0  0  0  0  0  0  0  0  0  0  0  0
  148.8956  137.9276  155.4029 H   0  0  0  0  0  0  0  0  0  0  0  0
  150.9746  136.4434  154.5645 H   0  0  0  0  0  0  0  0  0  0  0  0
  150.3216  137.6578  153.4570 H   0  0  0  0  0  0  0  0  0  0  0  0
  152.7671  137.9049  155.2377 H   0  0  0  0  0  0  0  0  0  0  0  0
  152.5957  138.4078  153.5545 H   0  0  0  0  0  0  0  0  0  0  0  0
  1  2  2  0  0  0  0
  2 18  1  0  0  0  0
  2  3  1  0  0  0  0
  3 20  1  0  0  0  0
  3  4  2  0  0  0  0
  4  5  1  0  0  0  0
  4  9  1  0  0  0  0
  5  6  1  0  0  0  0
  5  7  1  0  0  0  0
  5  8  1  0  0  0  0
  9 10  2  0  0  0  0
 10 11  1  0  0  0  0
 10 18  1  0  0  0  0
 11 12  1  0  0  0  0
 12 13  1  0  0  0  0
 12 21  1  0  0  0  0
 12 22  1  0  0  0  0
 13 17  1  0  0  0  0
 13 14  1  0  0  0  0
 13 23  1  0  0  0  0
 14 15  1  0  0  0  0
 14 24  1  0  0  0  0
 14 25  1  0  0  0  0
 15 16  1  0  0  0  0
 15 26  1  0  0  0  0
 15 27  1  0  0  0  0
 16 17  1  0  0  0  0
 16 28  1  0  0  0  0
 16 29  1  0  0  0  0
 18 19  1  0  0  0  0
M  END
> <s_m_source_file>
AV-unprocessed.smi

> <i_m_source_file_index>
2671

> <i_lp_mmshare_version>
43012

> <i_f3d_flags>
0

> <s_epik_input>
W09IXWMxW2NIXWMoQyhGKShGKUYpbmMobjEpU1tDSDJdW0NAQEhdMltDSDJdW0NIMl1bQ0gyXU8y

> <s_epik_cmdline>
J2VwaWtfcHl0aG9uJywgJy1waCcsICc3LjAnLCAnLXRuJywgJzgnLCAnLW1hJywgJzIwMCcsICctbWV0YWxfYmluZGluZycsICctaW1hZScsICc8aW5maWxlLm1hZT4nLCAnLW9tYWUnLCAnPG91dGZpbGUubWFlPic=

> <r_lp_tautomer_probability>
0.660323

> <r_epik_Ionization_Penalty>
0.14469

> <r_epik_Ionization_Penalty_Charging>
0.14469

> <r_epik_Ionization_Penalty_Neutral>
3.1007e-10

> <r_epik_State_Penalty>
0.804349

> <r_epik_Charging_Adjusted_Penalty>
0.949039

> <i_epik_Tot_Q>
0

> <i_epik_Tot_abs_Q>
0

> <r_epik_Metal_State_Penalty>
1.52783

> <b_epik_Metal_Only>
0

> <s_lp_Force_Field>
OPLS_2005

> <r_lp_Energy>
21.2239

> <b_lp_Chiralities_Consistent>
1

> <s_lp_Variant>
AV-unprocessed.smi:2671-3

> <Gold.Version>
5.8.1

> <Gold.Id.Protein>
6NUR|6NUR_protein|mol2

> <Gold.PLP.Fitness>
40.6855

> <Gold.PLP.PLP>
-39.5280

> <Gold.PLP.part.hbond>
-1.4111

> <Gold.PLP.part.metal>
0.0000

> <Gold.PLP.part.buried>
-5.1010

> <Gold.PLP.part.nonpolar>
-33.9785

> <Gold.PLP.part.repulsive>
0.1412

> <Gold.PLP.ligand.clash>
0.0000

> <Gold.PLP.ligand.torsion>
0.9372

> <Gold.PLP.Chemscore.Hbond>
1.0000

> <Gold.PLP.Chemscore.CHOScore>
0.0000

> <Gold.PLP.Chemscore.Metal>
0.0000

> <Gold.Chemscore.Hbonds>
donor molecule, donor type, donor heavy atom, donor atom, acceptor molecule, acceptor atom, score
      P1  H  7989  7998       L1    17  1.00

> <Gold.PLP.Chemscore.Internal.Correction>
0.0320

> <Gold.Rescore>
     Score         DG    S(hbond)    S(metal)    S(lipo)     H(rot)  DE(clash)    DE(int)     intcor
     10.36     -11.57       0.82        0.00      65.65       1.69       0.68       0.53       ----

> <Gold.Chemscore.Fitness>
10.3563

> <Gold.Chemscore.DG>
-11.5679

> <Gold.Chemscore.ZeroCoef>
-5.4800

> <Gold.Chemscore.Hbond>
0.8202

> <Gold.Chemscore.Metal>
0.0000

> <Gold.Chemscore.Lipo>
65.6471

> <Gold.Chemscore.Internal_Hbond>
0.0000

> <Gold.Chemscore.DEClash>
0.6847

> <Gold.Chemscore.DEInternal>
0.5268

> <Gold.Chemscore.Rot>
1.6924

> <Gold.Chemscore.Internal.Correction>
   9.000000E+99

> <Gold.Chemscore.Hbonds>
donor molecule, donor type, donor heavy atom, donor atom, acceptor molecule, acceptor atom, score
      P1  H  7989  7998       L1    17  0.24

> <Gold.Chemscore.Hbond.Weighted>
-2.7396

> <Gold.Chemscore.Metal.Weighted>
-0.0000

> <Gold.Chemscore.Lipo.Weighted>
-7.6807

> <Gold.Chemscore.Internal_Hbond.Weighted>
0.0000

> <Gold.Chemscore.DEClash.Weighted>
0.6847

> <Gold.Chemscore.DEInternal.Weighted>
0.5268

> <Gold.Chemscore.Rot.Weighted>
4.3324

> <Gold.Chemscore.Internal.Correction.Weighted>
   9.000000E+99

> <Gold.Protein.RotatedTorsions>
[ 6907 6896 6895 6894 ] final  178.96 input  -60.11 | X-H torsion
[ 7974 7965 7964 7962 ] final -112.98 input  175.53 | X-H torsion
[ 8008 7997 7996 7995 ] final   97.22 input   59.86 | X-H torsion
[ 10167 10162 10161 10158 ] final  -16.34 input  -65.29 | X-H torsion
[ 10718 10713 10712 10709 ] final   78.79 input   66.30 | X-H torsion
[ 10763 10752 10751 10750 ] final -102.77 input  -60.55 | X-H torsion
[ 11005 11000 10999 10996 ] final  -51.57 input  -57.11 | X-H torsion

> <Gold.Protein.ActiveResidues>
 VAL166  LYS551  ARG553  GLY616  TRP617  ASP618  TYR619  PRO620  LYS621  CYS622 
 ASP623  PHE694  ASN695  SER759  ASP760  ASP761  ALA762  ILE779  LEU786  VAL792 
 PHE793  MET794  SER795  GLU796  ALA797  LYS798  CYS799  TRP800  GLU811  SER814 

> <Gold.Protein.RotatedAtoms>
  151.6794  133.3312  159.3215 H   0  0  0  0  0  0  0  0  0  0  0  0  # atno 6907 bound_to 6896
  150.7830  134.6794  159.6445 H   0  0  0  0  0  0  0  0  0  0  0  0  # atno 6908 bound_to 6896
  152.3892  134.6471  160.0166 H   0  0  0  0  0  0  0  0  0  0  0  0  # atno 6909 bound_to 6896
  145.1375  140.8759  143.3722 H   0  0  0  0  0  0  0  0  0  0  0  0  # atno 7974 bound_to 7965
  156.0878  140.3261  155.7776 H   0  0  0  0  0  0  0  0  0  0  0  0  # atno 8008 bound_to 7997
  155.5047  140.0572  157.2951 H   0  0  0  0  0  0  0  0  0  0  0  0  # atno 8009 bound_to 7997
  154.4619  140.1971  156.0237 H   0  0  0  0  0  0  0  0  0  0  0  0  # atno 8010 bound_to 7997
  140.7232  143.5126  150.9731 H   0  0  0  0  0  0  0  0  0  0  0  0  # atno 10167 bound_to 10162
  157.6756  130.9884  150.1837 H   0  0  0  0  0  0  0  0  0  0  0  0  # atno 10718 bound_to 10713
  154.7758  135.4848  153.9741 H   0  0  0  0  0  0  0  0  0  0  0  0  # atno 10763 bound_to 10752
  153.1427  135.6776  153.9010 H   0  0  0  0  0  0  0  0  0  0  0  0  # atno 10764 bound_to 10752
  153.8679  135.3147  155.3419 H   0  0  0  0  0  0  0  0  0  0  0  0  # atno 10765 bound_to 10752
  141.0878  133.6639  156.3897 H   0  0  0  0  0  0  0  0  0  0  0  0  # atno 11005 bound_to 11000
  145.0568  139.3137  143.5900 LP  0  0  0  0  0  0  0  0  0  0  0  0  # atno 17320 bound_to 7965
  146.3508  139.9996  142.8677 LP  0  0  0  0  0  0  0  0  0  0  0  0  # atno 17321 bound_to 7965
  139.8840  143.7036  152.3153 LP  0  0  0  0  0  0  0  0  0  0  0  0  # atno 17342 bound_to 10162
  139.7328  144.7578  151.0775 LP  0  0  0  0  0  0  0  0  0  0  0  0  # atno 17343 bound_to 10162
  156.2564  130.3706  149.8177 LP  0  0  0  0  0  0  0  0  0  0  0  0  # atno 17370 bound_to 10713
  156.5935  130.8516  151.3414 LP  0  0  0  0  0  0  0  0  0  0  0  0  # atno 17371 bound_to 10713
  140.5322  134.6201  157.5353 LP  0  0  0  0  0  0  0  0  0  0  0  0  # atno 17394 bound_to 11000
  139.9699  134.7310  156.0062 LP  0  0  0  0  0  0  0  0  0  0  0  0  # atno 17395 bound_to 11000

$$$$
