#       Name:                AV-unprocessed.smi:234
#       Creating user name   scv26
#       Creation time:       Thu Mar 26 20:34:15 2020


#       File generated by GOLD software.
#

@<TRIPOS>MOLECULE
AV-unprocessed.smi:234
    69    72     1
SMALL
NO_CHARGES


@<TRIPOS>ATOM
      1 ****        -5.0966  -0.6725   4.0549 C.3            1 S1                 0.0000
      2 ****        -4.4897  -1.5648   2.9641 C.3            1 S1                 0.0000
      3 ****        -3.0705  -1.5121   2.9581 O.3            1 S1                 0.0000
      4 ****        -2.5227  -0.2813   2.5038 C.3            1 S1                 0.0000
      5 ****        -1.3116  -0.4933   1.5979 C.3            1 S1                 0.0000
      6 ****        -0.7135   0.7415   2.2860 C.3            1 S1                 0.0000
      7 ****         0.7333   0.6633   2.5076 N.3            1 S1                 0.0000
      8 ****         1.3590   1.6620   3.3667 C.3            1 S1                 0.0000
      9 ****         1.5179   0.3378   1.4527 C.ar           1 S1                 0.0000
     10 ****         2.5942  -0.4494   1.7047 N.ar           1 S1                 0.0000
     11 ****         3.4071  -0.8139   0.7088 C.ar           1 S1                 0.0000
     12 ****         3.3321  -0.5026  -0.5867 N.ar           1 S1                 0.0000
     13 ****         2.2613   0.3025  -0.8422 C.ar           1 S1                 0.0000
     14 ****         1.3142   0.7738   0.1111 C.ar           1 S1                 0.0000
     15 ****         0.3815   1.5912  -0.5175 N.2            1 S1                 0.0000
     16 ****         0.7456   1.5890  -1.7700 C.2            1 S1                 0.0000
     17 ****         1.8577   0.8304  -2.0567 N.pl3          1 S1                 0.0000
     18 ****         2.4705   0.6418  -3.3632 C.3            1 S1                 0.0000
     19 ****         1.8784  -0.5570  -4.1509 C.3            1 S1                 0.0000
     20 ****         2.1165  -1.7354  -3.3996 O.3            1 S1                 0.0000
     21 ****         0.3729  -0.4492  -4.3820 C.3            1 S1                 0.0000
     22 ****         0.1675  -1.2144  -5.6799 C.3            1 S1                 0.0000
     23 ****         1.2996  -0.8321  -6.4399 O.3            1 S1                 0.0000
     24 ****         2.4379  -0.7907  -5.5831 C.3            1 S1                 0.0000
     25 ****         3.3998   0.2724  -6.1359 C.3            1 S1                 0.0000
     26 ****        -1.5858   0.4085   3.5298 C.3            1 S1                 0.0000
     27 ****        -2.1916   1.6031   4.2681 C.3            1 S1                 0.0000
     28 ****        -0.9739  -0.5170   4.5960 C.3            1 S1                 0.0000
     29 ****        -6.1768  -0.8092   4.1083 H              1 S1                 0.0000
     30 ****        -4.9118   0.3832   3.8587 H              1 S1                 0.0000
     31 ****        -4.6808  -0.9131   5.0335 H              1 S1                 0.0000
     32 ****        -4.7788  -2.5991   3.1508 H              1 S1                 0.0000
     33 ****        -4.8851  -1.3053   1.9808 H              1 S1                 0.0000
     34 ****        -3.2422   0.4030   2.0468 H              1 S1                 0.0000
     35 ****        -0.7751  -1.4217   1.8030 H              1 S1                 0.0000
     36 ****        -1.5168  -0.3724   0.5340 H              1 S1                 0.0000
     37 ****        -1.0348   1.6685   1.8073 H              1 S1                 0.0000
     38 ****         1.9871   2.3475   2.7952 H              1 S1                 0.0000
     39 ****         1.9825   1.1722   4.1149 H              1 S1                 0.0000
     40 ****         0.6139   2.2598   3.8891 H              1 S1                 0.0000
     41 ****         4.2364  -1.4463   0.9905 H              1 S1                 0.0000
     42 ****         0.2049   2.1407  -2.5251 H              1 S1                 0.0000
     43 ****         2.3397   1.5684  -3.9226 H              1 S1                 0.0000
     44 ****         3.5446   0.5143  -3.2223 H              1 S1                 0.0000
     45 ****         1.7531  -2.4700  -3.8697 H              1 S1                 0.0000
     46 ****        -0.2301  -0.8312  -3.5569 H              1 S1                 0.0000
     47 ****         0.0920   0.5921  -4.5438 H              1 S1                 0.0000
     48 ****         0.1803  -2.2922  -5.5103 H              1 S1                 0.0000
     49 ****        -0.7634  -0.9514  -6.1825 H              1 S1                 0.0000
     50 ****         2.9305  -1.7631  -5.6445 H              1 S1                 0.0000
     51 ****         4.3028   0.3461  -5.5299 H              1 S1                 0.0000
     52 ****         2.9312   1.2559  -6.1754 H              1 S1                 0.0000
     53 ****         3.7093   0.0187  -7.1499 H              1 S1                 0.0000
     54 ****        -1.4412   2.1506   4.8378 H              1 S1                 0.0000
     55 ****        -2.9632   1.2890   4.9709 H              1 S1                 0.0000
     56 ****        -2.6513   2.3091   3.5764 H              1 S1                 0.0000
     57 ****        -0.2293   0.0012   5.2007 H              1 S1                 0.0000
     58 ****        -0.4820  -1.3843   4.1555 H              1 S1                 0.0000
     59 ****        -1.7364  -0.8954   5.2776 H              1 S1                 0.0000
     60 ****        -2.7344  -2.2413   2.3620 LP             1 S1                 0.0000
     61 ****        -2.7492  -1.6701   3.8918 LP             1 S1                 0.0000
     62 ****         0.6981  -0.1611   3.0723 LP             1 S1                 0.0000
     63 ****         2.7794  -0.7574   2.6379 LP             1 S1                 0.0000
     64 ****         3.9783  -0.8191  -1.2812 LP             1 S1                 0.0000
     65 ****        -0.3920   2.0713  -0.1038 LP             1 S1                 0.0000
     66 ****         1.6786  -1.6583  -2.5039 LP             1 S1                 0.0000
     67 ****         3.1007  -1.8655  -3.2795 LP             1 S1                 0.0000
     68 ****         1.1465   0.0721  -6.8388 LP             1 S1                 0.0000
     69 ****         1.4535  -1.4970  -7.1708 LP             1 S1                 0.0000
@<TRIPOS>BOND
    1    1    2 1     
    2    1   29 1     
    3    1   30 1     
    4    1   31 1     
    5    2    3 1     
    6    2   32 1     
    7    2   33 1     
    8    3    4 1     
    9    4   26 1     
   10    4    5 1     
   11    4   34 1     
   12    5    6 1     
   13    5   35 1     
   14    5   36 1     
   15    6    7 1     
   16    6   26 1     
   17    6   37 1     
   18    7    8 1     
   19    7    9 1     
   20    8   38 1     
   21    8   39 1     
   22    8   40 1     
   23    9   14 ar    
   24    9   10 ar    
   25   10   11 ar    
   26   11   12 ar    
   27   11   41 1     
   28   12   13 ar    
   29   13   17 1     
   30   13   14 ar    
   31   14   15 1     
   32   15   16 2     
   33   16   17 1     
   34   16   42 1     
   35   17   18 1     
   36   18   19 1     
   37   18   43 1     
   38   18   44 1     
   39   19   24 1     
   40   19   20 1     
   41   19   21 1     
   42   20   45 1     
   43   21   22 1     
   44   21   46 1     
   45   21   47 1     
   46   22   23 1     
   47   22   48 1     
   48   22   49 1     
   49   23   24 1     
   50   24   25 1     
   51   24   50 1     
   52   25   51 1     
   53   25   52 1     
   54   25   53 1     
   55   26   27 1     
   56   26   28 1     
   57   27   54 1     
   58   27   55 1     
   59   27   56 1     
   60   28   57 1     
   61   28   58 1     
   62   28   59 1     
   63    3   60 1     
   64    3   61 1     
   65    7   62 1     
   66   10   63 1     
   67   12   64 1     
   68   15   65 1     
   69   20   66 1     
   70   20   67 1     
   71   23   68 1     
   72   23   69 1     
@<TRIPOS>SUBSTRUCTURE
      1 S1             1
@<TRIPOS>SET
LONE_PAIRS      STATIC     ATOMS    <user>   **** ""
10 60 61 62 63 64 65 66 67 68 69
DONOR_HYDROGENS      STATIC     ATOMS    <user>   **** ""
1 45
ATOM$BLUE        STATIC     ATOMS    COLORGROUP SYSTEM
10 60 61 62 63 64 65 66 67 68 69
ATOM$RED        STATIC     ATOMS    COLORGROUP SYSTEM
1 45
