#       Name:                AV-unprocessed.smi:1633
#       Creating user name   scv26
#       Creation time:       Fri Mar 27 07:21:29 2020


#       File generated by GOLD software.
#

@<TRIPOS>MOLECULE
AV-unprocessed.smi:1633
    56    58     1
SMALL
NO_CHARGES


@<TRIPOS>ATOM
      1 ****        -5.0551  -2.3720  -0.6846 C.3            1 S1                 0.0000
      2 ****        -4.7760  -1.3678   0.4357 C.2            1 S1                 0.0000
      3 ****        -5.0247  -1.7067   1.5924 O.2            1 S1                 0.0000
      4 ****        -4.2678  -0.1514   0.1247 N.am           1 S1                 0.0000
      5 ****        -3.8531   0.2822  -1.2121 C.3            1 S1                 0.0000
      6 ****        -2.3192   0.4136  -1.2391 C.3            1 S1                 0.0000
      7 ****        -1.8274   1.3265  -0.1679 N.4            1 S1                 1.0000
      8 ****        -0.3484   1.4574  -0.1392 C.3            1 S1                 0.0000
      9 ****         0.2143   2.3136  -1.2974 C.3            1 S1                 0.0000
     10 ****        -0.2351   3.6458  -1.1510 O.3            1 S1                 0.0000
     11 ****         1.7550   2.3471  -1.3348 C.3            1 S1                 0.0000
     12 ****         2.3329   1.0265  -1.5040 N.pl3          1 S1                 0.0000
     13 ****         2.4623   0.3420  -2.6566 C.2            1 S1                 0.0000
     14 ****         3.0052  -0.8696  -2.5869 N.2            1 S1                 0.0000
     15 ****         3.2677  -0.9812  -1.2323 C.ar           1 S1                 0.0000
     16 ****         3.8433  -2.0378  -0.4935 C.ar           1 S1                 0.0000
     17 ****         4.0121  -1.9360   0.9058 C.ar           1 S1                 0.0000
     18 ****         4.6348  -3.0973   1.6607 C.3            1 S1                 0.0000
     19 ****         3.6029  -0.7619   1.5877 C.ar           1 S1                 0.0000
     20 ****         3.7748  -0.6305   3.0907 C.3            1 S1                 0.0000
     21 ****         3.0268   0.3036   0.8648 C.ar           1 S1                 0.0000
     22 ****         2.8630   0.1899  -0.5272 C.ar           1 S1                 0.0000
     23 ****        -2.3778   0.9895   1.1733 C.3            1 S1                 0.0000
     24 ****        -3.9098   0.8431   1.1390 C.3            1 S1                 0.0000
     25 ****        -4.1408  -2.6116  -1.2281 H              1 S1                 0.0000
     26 ****        -5.7915  -1.9763  -1.3843 H              1 S1                 0.0000
     27 ****        -5.4515  -3.3018  -0.2756 H              1 S1                 0.0000
     28 ****        -4.1808  -0.3830  -2.0098 H              1 S1                 0.0000
     29 ****        -4.3130   1.2469  -1.4314 H              1 S1                 0.0000
     30 ****        -1.8664  -0.5714  -1.1123 H              1 S1                 0.0000
     31 ****        -2.0131   0.7773  -2.2190 H              1 S1                 0.0000
     32 ****        -0.0363   1.9084   0.8044 H              1 S1                 0.0000
     33 ****         0.0784   0.4541  -0.1479 H              1 S1                 0.0000
     34 ****        -0.1376   1.9425  -2.2594 H              1 S1                 0.0000
     35 ****        -1.1666   3.6760  -1.3048 H              1 S1                 0.0000
     36 ****         2.1005   2.9769  -2.1560 H              1 S1                 0.0000
     37 ****         2.1519   2.7867  -0.4188 H              1 S1                 0.0000
     38 ****         2.1306   0.7532  -3.5990 H              1 S1                 0.0000
     39 ****         4.1551  -2.9321  -1.0128 H              1 S1                 0.0000
     40 ****         5.5426  -2.7780   2.1727 H              1 S1                 0.0000
     41 ****         4.9008  -3.9129   0.9878 H              1 S1                 0.0000
     42 ****         3.9378  -3.4884   2.4019 H              1 S1                 0.0000
     43 ****         3.4144   0.3337   3.4502 H              1 S1                 0.0000
     44 ****         4.8266  -0.7165   3.3639 H              1 S1                 0.0000
     45 ****         3.2172  -1.4109   3.6090 H              1 S1                 0.0000
     46 ****         2.7108   1.2026   1.3730 H              1 S1                 0.0000
     47 ****        -1.9268   0.0597   1.5244 H              1 S1                 0.0000
     48 ****        -2.1019   1.7655   1.8883 H              1 S1                 0.0000
     49 ****        -4.3734   1.7978   0.8862 H              1 S1                 0.0000
     50 ****        -4.2793   0.5881   2.1332 H              1 S1                 0.0000
     51 ****        -2.1909   2.2434  -0.3839 H              1 S1                 0.0000
     52 ****        -5.3980  -2.6156   1.7778 LP             1 S1                 0.0000
     53 ****        -4.8533  -1.0731   2.3469 LP             1 S1                 0.0000
     54 ****         0.2329   4.2318  -1.8126 LP             1 S1                 0.0000
     55 ****        -0.0380   3.9659  -0.2243 LP             1 S1                 0.0000
     56 ****         3.1784  -1.5272  -3.3201 LP             1 S1                 0.0000
@<TRIPOS>BOND
    1    1    2 1     
    2    1   25 1     
    3    1   26 1     
    4    1   27 1     
    5    2    3 2     
    6    2    4 am    
    7    4   24 1     
    8    4    5 1     
    9    5    6 1     
   10    5   28 1     
   11    5   29 1     
   12    6    7 1     
   13    6   30 1     
   14    6   31 1     
   15    7    8 1     
   16    7   23 1     
   17    7   51 1     
   18    8    9 1     
   19    8   32 1     
   20    8   33 1     
   21    9   10 1     
   22    9   11 1     
   23    9   34 1     
   24   10   35 1     
   25   11   12 1     
   26   11   36 1     
   27   11   37 1     
   28   12   22 1     
   29   12   13 1     
   30   13   14 2     
   31   13   38 1     
   32   14   15 1     
   33   15   22 ar    
   34   15   16 ar    
   35   16   17 ar    
   36   16   39 1     
   37   17   18 1     
   38   17   19 ar    
   39   18   40 1     
   40   18   41 1     
   41   18   42 1     
   42   19   20 1     
   43   19   21 ar    
   44   20   43 1     
   45   20   44 1     
   46   20   45 1     
   47   21   22 ar    
   48   21   46 1     
   49   23   24 1     
   50   23   47 1     
   51   23   48 1     
   52   24   49 1     
   53   24   50 1     
   54    3   52 1     
   55    3   53 1     
   56   10   54 1     
   57   10   55 1     
   58   14   56 1     
@<TRIPOS>SUBSTRUCTURE
      1 S1             1
@<TRIPOS>SET
LONE_PAIRS      STATIC     ATOMS    <user>   **** ""
5 52 53 54 55 56
DONOR_HYDROGENS      STATIC     ATOMS    <user>   **** ""
2 51 35
ATOM$BLUE        STATIC     ATOMS    COLORGROUP SYSTEM
5 52 53 54 55 56
ATOM$RED        STATIC     ATOMS    COLORGROUP SYSTEM
2 51 35
