AV-unprocessed.smi:3177|AV-procd|sdf|12129|dock2
  -GOLD-   2272017573D 1   1.00000     0.00000
 Structure written by MMmdl.
 30 31  0  0  0  0  0  0  0  0  1 V2000
  154.1945  141.3321  160.8033 C   0  0  0  0  0  0  0  0  0  0  0  0
  153.3186  142.4117  160.4982 O   0  0  0  0  0  0  0  0  0  0  0  0
  152.4615  142.2768  159.4254 C   0  0  0  0  0  0  0  0  0  0  0  0
  152.2422  140.9896  158.8954 C   0  0  0  0  0  0  0  0  0  0  0  0
  151.3725  140.8436  157.7978 C   0  0  0  0  0  0  0  0  0  0  0  0
  150.7537  141.9961  157.2583 C   0  0  0  0  0  0  0  0  0  0  0  0
  149.8441  141.9742  156.1673 N   0  0  0  0  0  0  0  0  0  0  0  0
  149.7937  141.1106  155.1354 C   0  0  0  0  0  0  0  0  0  0  0  0
  150.6015  140.1989  154.9572 O   0  0  0  0  0  0  0  0  0  0  0  0
  148.6792  141.3469  154.1045 C   0  0  1  0  0  0  0  0  0  0  0  0
  147.7743  140.1266  153.8423 C   0  0  0  0  0  0  0  0  0  0  0  0
  146.3645  140.6494  154.0672 C   0  0  0  0  0  0  0  0  0  0  0  0
  146.5348  142.1581  153.9528 C   0  0  0  0  0  0  0  0  0  0  0  0
  147.7963  142.3695  154.5616 O   0  0  0  0  0  0  0  0  0  0  0  0
  151.0247  143.2360  157.8727 C   0  0  0  0  0  0  0  0  0  0  0  0
  151.8589  143.3832  158.9235 N   0  0  0  0  0  0  0  0  0  0  0  0
  154.8000  141.5933  161.6711 H   0  0  0  0  0  0  0  0  0  0  0  0
  154.8747  141.1234  159.9764 H   0  0  0  0  0  0  0  0  0  0  0  0
  153.6395  140.4254  161.0485 H   0  0  0  0  0  0  0  0  0  0  0  0
  152.7299  140.1275  159.3259 H   0  0  0  0  0  0  0  0  0  0  0  0
  151.1872  139.8564  157.4031 H   0  0  0  0  0  0  0  0  0  0  0  0
  149.1831  142.7372  156.1343 H   0  0  0  0  0  0  0  0  0  0  0  0
  149.1311  141.6767  153.1677 H   0  0  0  0  0  0  0  0  0  0  0  0
  147.8983  139.7872  152.8134 H   0  0  0  0  0  0  0  0  0  0  0  0
  147.9773  139.2758  154.4940 H   0  0  0  0  0  0  0  0  0  0  0  0
  145.6414  140.2487  153.3565 H   0  0  0  0  0  0  0  0  0  0  0  0
  146.0304  140.3919  155.0730 H   0  0  0  0  0  0  0  0  0  0  0  0
  146.5693  142.4733  152.9085 H   0  0  0  0  0  0  0  0  0  0  0  0
  145.7438  142.7124  154.4583 H   0  0  0  0  0  0  0  0  0  0  0  0
  150.5640  144.1419  157.5061 H   0  0  0  0  0  0  0  0  0  0  0  0
  1  2  1  0  0  0  0
  1 17  1  0  0  0  0
  1 18  1  0  0  0  0
  1 19  1  0  0  0  0
  2  3  1  0  0  0  0
  3 16  1  0  0  0  0
  3  4  2  0  0  0  0
  4  5  1  0  0  0  0
  4 20  1  0  0  0  0
  5  6  2  0  0  0  0
  5 21  1  0  0  0  0
  6  7  1  0  0  0  0
  6 15  1  0  0  0  0
  7  8  1  0  0  0  0
  7 22  1  0  0  0  0
  8  9  2  0  0  0  0
  8 10  1  0  0  0  0
 10 14  1  0  0  0  0
 10 11  1  0  0  0  0
 10 23  1  0  0  0  0
 11 12  1  0  0  0  0
 11 24  1  0  0  0  0
 11 25  1  0  0  0  0
 12 13  1  0  0  0  0
 12 26  1  0  0  0  0
 12 27  1  0  0  0  0
 13 14  1  0  0  0  0
 13 28  1  0  0  0  0
 13 29  1  0  0  0  0
 15 16  2  0  0  0  0
 15 30  1  0  0  0  0
M  END
> <s_m_source_file>
AV-unprocessed.smi

> <i_m_source_file_index>
3177

> <i_lp_mmshare_version>
43012

> <i_f3d_flags>
0

> <s_epik_input>
W0NIM11PYzFbY0hdW2NIXWMoW2NIXW4xKVtOSF1DKD1PKVtDQEBIXTJbQ0gyXVtDSDJdW0NIMl1PMg==

> <s_epik_cmdline>
J2VwaWtfcHl0aG9uJywgJy1waCcsICc3LjAnLCAnLXRuJywgJzgnLCAnLW1hJywgJzIwMCcsICctbWV0YWxfYmluZGluZycsICctaW1hZScsICc8aW5maWxlLm1hZT4nLCAnLW9tYWUnLCAnPG91dGZpbGUubWFlPic=

> <r_lp_tautomer_probability>
1

> <r_epik_Ionization_Penalty>
2.59882e-05

> <r_epik_Ionization_Penalty_Charging>
0

> <r_epik_Ionization_Penalty_Neutral>
2.59882e-05

> <r_epik_State_Penalty>
-0

> <r_epik_Charging_Adjusted_Penalty>
0

> <i_epik_Tot_Q>
0

> <i_epik_Tot_abs_Q>
0

> <r_epik_Metal_State_Penalty>
-0

> <b_epik_Metal_Only>
0

> <s_lp_Force_Field>
OPLS_2005

> <r_lp_Energy>
23.4502

> <b_lp_Chiralities_Consistent>
1

> <s_lp_Variant>
AV-unprocessed.smi:3177-2

> <Gold.Version>
5.8.1

> <Gold.Id.Protein>
6NUR|6NUR_protein|mol2

> <Gold.PLP.Fitness>
38.1334

> <Gold.PLP.PLP>
-30.1010

> <Gold.PLP.part.hbond>
-2.0000

> <Gold.PLP.part.metal>
0.0000

> <Gold.PLP.part.buried>
-3.9819

> <Gold.PLP.part.nonpolar>
-26.4511

> <Gold.PLP.part.repulsive>
2.5839

> <Gold.PLP.ligand.clash>
0.0000

> <Gold.PLP.ligand.torsion>
0.4366

> <Gold.PLP.Chemscore.Hbond>
1.9600

> <Gold.PLP.Chemscore.CHOScore>
1.0000

> <Gold.PLP.Chemscore.Metal>
0.0000

> <Gold.Chemscore.Hbonds>
donor molecule, donor type, donor heavy atom, donor atom, acceptor molecule, acceptor atom, score
      L1  H     7    22       P1  8028  0.86
      P1  H  7989  7998       L1     9  1.00
      L1  C    15    30       P1  8028  0.99

> <Gold.PLP.Chemscore.Internal.Correction>
0.0256

> <Gold.Rescore>
     Score         DG    S(hbond)    S(metal)    S(lipo)     H(rot)  DE(clash)    DE(int)     intcor
     12.78     -14.89       1.45        0.00      66.00       1.24       0.78       1.32       ----

> <Gold.Chemscore.Fitness>
12.7795

> <Gold.Chemscore.DG>
-14.8877

> <Gold.Chemscore.ZeroCoef>
-5.4800

> <Gold.Chemscore.Hbond>
1.4538

> <Gold.Chemscore.Metal>
0.0000

> <Gold.Chemscore.Lipo>
65.9960

> <Gold.Chemscore.Internal_Hbond>
0.0000

> <Gold.Chemscore.DEClash>
0.7843

> <Gold.Chemscore.DEInternal>
1.3239

> <Gold.Chemscore.Rot>
1.2381

> <Gold.Chemscore.Internal.Correction>
   9.000000E+99

> <Gold.Chemscore.Hbonds>
donor molecule, donor type, donor heavy atom, donor atom, acceptor molecule, acceptor atom, score
      L1  H     7    22       P1  8028  0.79
      P1  H  7989  7998       L1     9  0.30

> <Gold.Chemscore.Hbond.Weighted>
-4.8556

> <Gold.Chemscore.Metal.Weighted>
-0.0000

> <Gold.Chemscore.Lipo.Weighted>
-7.7215

> <Gold.Chemscore.Internal_Hbond.Weighted>
0.0000

> <Gold.Chemscore.DEClash.Weighted>
0.7843

> <Gold.Chemscore.DEInternal.Weighted>
1.3239

> <Gold.Chemscore.Rot.Weighted>
3.1694

> <Gold.Chemscore.Internal.Correction.Weighted>
   9.000000E+99

> <Gold.Protein.RotatedTorsions>
[ 6907 6896 6895 6894 ] final   38.17 input  -60.11 | X-H torsion
[ 7974 7965 7964 7962 ] final -127.48 input  175.53 | X-H torsion
[ 8008 7997 7996 7995 ] final   57.94 input   59.86 | X-H torsion
[ 10167 10162 10161 10158 ] final -113.58 input  -65.29 | X-H torsion
[ 10718 10713 10712 10709 ] final -128.94 input   66.30 | X-H torsion
[ 10763 10752 10751 10750 ] final  -51.48 input  -60.55 | X-H torsion
[ 11005 11000 10999 10996 ] final    7.94 input  -57.11 | X-H torsion

> <Gold.Protein.ActiveResidues>
 VAL166  LYS551  ARG553  GLY616  TRP617  ASP618  TYR619  PRO620  LYS621  CYS622 
 ASP623  PHE694  ASN695  SER759  ASP760  ASP761  ALA762  ILE779  LEU786  VAL792 
 PHE793  MET794  SER795  GLU796  ALA797  LYS798  CYS799  TRP800  GLU811  SER814 

> <Gold.Protein.RotatedAtoms>
  152.1529  134.8973  160.0546 H   0  0  0  0  0  0  0  0  0  0  0  0  # atno 6907 bound_to 6896
  151.9998  133.3816  159.4185 H   0  0  0  0  0  0  0  0  0  0  0  0  # atno 6908 bound_to 6896
  150.6878  134.3768  159.5060 H   0  0  0  0  0  0  0  0  0  0  0  0  # atno 6909 bound_to 6896
  144.9767  140.7599  143.4637 H   0  0  0  0  0  0  0  0  0  0  0  0  # atno 7974 bound_to 7965
  155.5419  140.3484  155.4449 H   0  0  0  0  0  0  0  0  0  0  0  0  # atno 8008 bound_to 7997
  156.0645  140.1348  156.9928 H   0  0  0  0  0  0  0  0  0  0  0  0  # atno 8009 bound_to 7997
  154.4496  140.0978  156.6551 H   0  0  0  0  0  0  0  0  0  0  0  0  # atno 8010 bound_to 7997
  140.1103  143.4534  152.1757 H   0  0  0  0  0  0  0  0  0  0  0  0  # atno 10167 bound_to 10162
  156.1998  130.6850  151.0526 H   0  0  0  0  0  0  0  0  0  0  0  0  # atno 10718 bound_to 10713
  154.1273  135.6525  153.4915 H   0  0  0  0  0  0  0  0  0  0  0  0  # atno 10763 bound_to 10752
  153.0206  135.5284  154.7036 H   0  0  0  0  0  0  0  0  0  0  0  0  # atno 10764 bound_to 10752
  154.6261  135.2970  155.0241 H   0  0  0  0  0  0  0  0  0  0  0  0  # atno 10765 bound_to 10752
  140.5426  134.0360  155.7909 H   0  0  0  0  0  0  0  0  0  0  0  0  # atno 11005 bound_to 11000
  145.2480  139.2043  143.4957 LP  0  0  0  0  0  0  0  0  0  0  0  0  # atno 17320 bound_to 7965
  146.3397  140.2388  142.8595 LP  0  0  0  0  0  0  0  0  0  0  0  0  # atno 17321 bound_to 7965
  139.5623  144.7413  151.4120 LP  0  0  0  0  0  0  0  0  0  0  0  0  # atno 17342 bound_to 10162
  140.6929  143.7818  150.7283 LP  0  0  0  0  0  0  0  0  0  0  0  0  # atno 17343 bound_to 10162
  157.6979  131.0787  150.6912 LP  0  0  0  0  0  0  0  0  0  0  0  0  # atno 17370 bound_to 10713
  156.6969  130.4611  149.5584 LP  0  0  0  0  0  0  0  0  0  0  0  0  # atno 17371 bound_to 10713
  141.1218  133.9448  157.2714 LP  0  0  0  0  0  0  0  0  0  0  0  0  # atno 17394 bound_to 11000
  139.9496  135.0178  156.8955 LP  0  0  0  0  0  0  0  0  0  0  0  0  # atno 17395 bound_to 11000

$$$$
