AV-unprocessed.smi:210|AV-procd|sdf|1612|dock2
  -GOLD-   2262019533D 1   1.00000     0.00000
 Structure written by MMmdl.
 57 61  0  0  0  0  0  0  0  0  1 V2000
  153.0034  142.6282  162.1742 C   0  0  0  0  0  0  0  0  0  0  0  0
  151.9837  142.3952  161.2185 O   0  0  0  0  0  0  0  0  0  0  0  0
  152.4967  142.1197  159.9246 C   0  0  1  0  0  0  0  0  0  0  0  0
  151.8383  140.8903  159.2933 C   0  0  0  0  0  0  0  0  0  0  0  0
  151.9398  141.6304  157.9490 C   0  0  1  0  0  0  0  0  0  0  0  0
  150.8048  141.4055  157.0483 N   0  0  0  0  0  0  0  0  0  0  0  0
  150.4520  142.4985  156.1495 C   0  0  0  0  0  0  0  0  0  0  0  0
  150.7652  140.2166  156.3980 C   0  0  0  0  0  0  0  0  0  0  0  0
  150.8243  140.1766  155.0396 N   0  0  0  0  0  0  0  0  0  0  0  0
  150.7632  139.0049  154.3998 C   0  0  0  0  0  0  0  0  0  0  0  0
  150.6425  137.7787  154.9128 N   0  0  0  0  0  0  0  0  0  0  0  0
  150.5823  137.8148  156.2752 C   0  0  0  0  0  0  0  0  0  0  0  0
  150.6290  138.9816  157.0884 C   0  0  0  0  0  0  0  0  0  0  0  0
  150.5255  138.6318  158.4291 N   0  0  0  0  0  0  0  0  0  0  0  0
  150.4148  137.3313  158.4088 C   0  0  0  0  0  0  0  0  0  0  0  0
  150.4664  136.7558  157.1587 N   0  0  0  0  0  0  0  0  0  0  0  0
  150.3290  135.3637  156.8447 C   0  0  0  0  0  0  0  0  0  0  0  0
  150.7586  134.8049  155.4836 C   0  0  0  0  0  0  0  0  0  0  0  0
  149.6202  133.7618  155.5685 C   0  0  0  0  0  0  0  0  0  0  0  0
  148.8672  133.4522  154.2593 C   0  0  0  0  0  0  0  0  0  0  0  0
  148.1472  134.5658  153.7694 O   0  0  0  0  0  0  0  0  0  0  0  0
  150.0474  132.4123  156.1773 C   0  0  0  0  0  0  0  0  0  0  0  0
  150.8712  131.6804  155.2924 O   0  0  0  0  0  0  0  0  0  0  0  0
  148.9555  134.7523  156.5526 C   0  0  0  0  0  0  0  0  0  0  0  0
  151.8875  142.9434  158.7671 C   0  0  0  0  0  0  0  0  0  0  0  0
  152.5715  144.2252  158.2760 C   0  0  0  0  0  0  0  0  0  0  0  0
  151.3880  145.0411  158.8085 C   0  0  0  0  0  0  0  0  0  0  0  0
  150.5860  143.7465  158.9739 C   0  0  0  0  0  0  0  0  0  0  0  0
  152.5542  142.8690  163.1375 H   0  0  0  0  0  0  0  0  0  0  0  0
  153.6438  143.4605  161.8843 H   0  0  0  0  0  0  0  0  0  0  0  0
  153.6254  141.7420  162.3059 H   0  0  0  0  0  0  0  0  0  0  0  0
  153.5863  142.0510  159.8826 H   0  0  0  0  0  0  0  0  0  0  0  0
  152.4265  139.9748  159.3582 H   0  0  0  0  0  0  0  0  0  0  0  0
  150.8112  140.7363  159.6309 H   0  0  0  0  0  0  0  0  0  0  0  0
  152.9142  141.4861  157.4779 H   0  0  0  0  0  0  0  0  0  0  0  0
  149.4940  142.3190  155.6604 H   0  0  0  0  0  0  0  0  0  0  0  0
  151.2129  142.6185  155.3773 H   0  0  0  0  0  0  0  0  0  0  0  0
  150.3693  143.4408  156.6886 H   0  0  0  0  0  0  0  0  0  0  0  0
  150.8180  139.0574  153.3224 H   0  0  0  0  0  0  0  0  0  0  0  0
  150.2967  136.7533  159.3140 H   0  0  0  0  0  0  0  0  0  0  0  0
  150.8228  134.8257  157.6556 H   0  0  0  0  0  0  0  0  0  0  0  0
  150.6306  135.5311  154.6792 H   0  0  0  0  0  0  0  0  0  0  0  0
  151.7649  134.3846  155.4671 H   0  0  0  0  0  0  0  0  0  0  0  0
  149.5599  133.1334  153.4796 H   0  0  0  0  0  0  0  0  0  0  0  0
  148.1549  132.6387  154.3990 H   0  0  0  0  0  0  0  0  0  0  0  0
  148.6545  134.9734  153.0839 H   0  0  0  0  0  0  0  0  0  0  0  0
  150.5836  132.5579  157.1157 H   0  0  0  0  0  0  0  0  0  0  0  0
  149.1827  131.7921  156.4149 H   0  0  0  0  0  0  0  0  0  0  0  0
  150.4371  130.8685  155.0789 H   0  0  0  0  0  0  0  0  0  0  0  0
  148.4765  134.2939  157.4183 H   0  0  0  0  0  0  0  0  0  0  0  0
  148.2817  135.4629  156.0704 H   0  0  0  0  0  0  0  0  0  0  0  0
  153.5206  144.4439  158.7663 H   0  0  0  0  0  0  0  0  0  0  0  0
  152.6633  144.2718  157.1906 H   0  0  0  0  0  0  0  0  0  0  0  0
  151.6008  145.5330  159.7578 H   0  0  0  0  0  0  0  0  0  0  0  0
  150.9651  145.7375  158.0837 H   0  0  0  0  0  0  0  0  0  0  0  0
  149.8475  143.6194  158.1830 H   0  0  0  0  0  0  0  0  0  0  0  0
  150.1263  143.6334  159.9557 H   0  0  0  0  0  0  0  0  0  0  0  0
  1  2  1  0  0  0  0
  1 29  1  0  0  0  0
  1 30  1  0  0  0  0
  1 31  1  0  0  0  0
  2  3  1  0  0  0  0
  3 25  1  0  0  0  0
  3  4  1  0  0  0  0
  3 32  1  0  0  0  0
  4  5  1  0  0  0  0
  4 33  1  0  0  0  0
  4 34  1  0  0  0  0
  5  6  1  0  0  0  0
  5 25  1  0  0  0  0
  5 35  1  0  0  0  0
  6  7  1  0  0  0  0
  6  8  1  0  0  0  0
  7 36  1  0  0  0  0
  7 37  1  0  0  0  0
  7 38  1  0  0  0  0
  8 13  1  0  0  0  0
  8  9  2  0  0  0  0
  9 10  1  0  0  0  0
 10 11  2  0  0  0  0
 10 39  1  0  0  0  0
 11 12  1  0  0  0  0
 12 16  1  0  0  0  0
 12 13  2  0  0  0  0
 13 14  1  0  0  0  0
 14 15  2  0  0  0  0
 15 16  1  0  0  0  0
 15 40  1  0  0  0  0
 16 17  1  0  0  0  0
 17 24  1  0  0  0  0
 17 18  1  0  0  0  0
 17 41  1  0  0  0  0
 18 19  1  0  0  0  0
 18 42  1  0  0  0  0
 18 43  1  0  0  0  0
 19 20  1  0  0  0  0
 19 22  1  0  0  0  0
 19 24  1  0  0  0  0
 20 21  1  0  0  0  0
 20 44  1  0  0  0  0
 20 45  1  0  0  0  0
 21 46  1  0  0  0  0
 22 23  1  0  0  0  0
 22 47  1  0  0  0  0
 22 48  1  0  0  0  0
 23 49  1  0  0  0  0
 24 50  1  0  0  0  0
 24 51  1  0  0  0  0
 25 28  1  0  0  0  0
 25 26  1  0  0  0  0
 26 27  1  0  0  0  0
 26 52  1  0  0  0  0
 26 53  1  0  0  0  0
 27 28  1  0  0  0  0
 27 54  1  0  0  0  0
 27 55  1  0  0  0  0
 28 56  1  0  0  0  0
 28 57  1  0  0  0  0
M  END
> <s_m_source_file>
AV-unprocessed.smi

> <i_m_source_file_index>
210

> <i_lp_mmshare_version>
43012

> <i_f3d_flags>
0

> <s_epik_input>
W0NIMl0xW0NIMl1bQ0gyXUMxMltDQEhdKE9bQ0gzXSlbQ0gyXVtDQEhdMk4oW0NIM10pYyhuW2NIXW4zKWMoYzM0KW5bY0hdbjRbQ0hdKFtDSDJdNSlbQ0gyXUM1KFtDSDJdW09IXSlbQ0gyXVtPSF0=

> <s_epik_cmdline>
J2VwaWtfcHl0aG9uJywgJy1waCcsICc3LjAnLCAnLXRuJywgJzgnLCAnLW1hJywgJzIwMCcsICctbWV0YWxfYmluZGluZycsICctaW1hZScsICc8aW5maWxlLm1hZT4nLCAnLW9tYWUnLCAnPG91dGZpbGUubWFlPic=

> <r_lp_tautomer_probability>
1

> <r_epik_Ionization_Penalty>
0.00313676

> <r_epik_Ionization_Penalty_Charging>
0

> <r_epik_Ionization_Penalty_Neutral>
0.00313676

> <r_epik_State_Penalty>
0.00199132

> <r_epik_Charging_Adjusted_Penalty>
0.00199132

> <i_epik_Tot_Q>
0

> <i_epik_Tot_abs_Q>
0

> <r_epik_Metal_State_Penalty>
-0

> <b_epik_Metal_Only>
0

> <s_lp_Force_Field>
OPLS_2005

> <r_lp_Energy>
61.2051

> <b_lp_Chiralities_Consistent>
1

> <s_lp_Variant>
AV-unprocessed.smi:210-2

> <Gold.Version>
5.8.1

> <Gold.Id.Protein>
6NUR|6NUR_protein|mol2

> <Gold.PLP.Fitness>
50.0589

> <Gold.PLP.PLP>
-46.0326

> <Gold.PLP.part.hbond>
-3.0000

> <Gold.PLP.part.metal>
0.0000

> <Gold.PLP.part.buried>
-5.2760

> <Gold.PLP.part.nonpolar>
-38.3208

> <Gold.PLP.part.repulsive>
0.3137

> <Gold.PLP.ligand.clash>
0.0000

> <Gold.PLP.ligand.torsion>
2.1676

> <Gold.PLP.Chemscore.Hbond>
1.6402

> <Gold.PLP.Chemscore.CHOScore>
0.7266

> <Gold.PLP.Chemscore.Metal>
0.0000

> <Gold.Chemscore.Hbonds>
donor molecule, donor type, donor heavy atom, donor atom, acceptor molecule, acceptor atom, score
      L1  H    21    46       P1  7948  1.00
      P1  H  6933  6945       L1     2  0.21
      P1  H  7989  7998       L1     9  0.35
      L1  C    10    39       P1  7957  0.71

> <Gold.PLP.Chemscore.Internal.Correction>
1.2609

> <Gold.Rescore>
     Score         DG    S(hbond)    S(metal)    S(lipo)     H(rot)  DE(clash)    DE(int)     intcor
     11.28     -15.88       1.77        0.00     116.60       3.57       0.07       4.53       ----

> <Gold.Chemscore.Fitness>
11.2751

> <Gold.Chemscore.DG>
-15.8793

> <Gold.Chemscore.ZeroCoef>
-5.4800

> <Gold.Chemscore.Hbond>
1.7662

> <Gold.Chemscore.Metal>
0.0000

> <Gold.Chemscore.Lipo>
116.6030

> <Gold.Chemscore.Internal_Hbond>
0.0000

> <Gold.Chemscore.DEClash>
0.0727

> <Gold.Chemscore.DEInternal>
4.5315

> <Gold.Chemscore.Rot>
3.5712

> <Gold.Chemscore.Internal.Correction>
   9.000000E+99

> <Gold.Chemscore.Hbonds>
donor molecule, donor type, donor heavy atom, donor atom, acceptor molecule, acceptor atom, score
      L1  H    21    46       P1  7948  0.49
      P1  H  6933  6945       L1     2  0.17
      P1  H  7989  7998       L1     9  0.01

> <Gold.Chemscore.Hbond.Weighted>
-5.8991

> <Gold.Chemscore.Metal.Weighted>
-0.0000

> <Gold.Chemscore.Lipo.Weighted>
-13.6425

> <Gold.Chemscore.Internal_Hbond.Weighted>
0.0000

> <Gold.Chemscore.DEClash.Weighted>
0.0727

> <Gold.Chemscore.DEInternal.Weighted>
4.5315

> <Gold.Chemscore.Rot.Weighted>
9.1423

> <Gold.Chemscore.Internal.Correction.Weighted>
   9.000000E+99

> <Gold.Protein.RotatedTorsions>
[ 6907 6896 6895 6894 ] final -151.38 input  -60.11 | X-H torsion
[ 7974 7965 7964 7962 ] final -178.64 input  175.53 | X-H torsion
[ 8008 7997 7996 7995 ] final  -57.48 input   59.86 | X-H torsion
[ 10167 10162 10161 10158 ] final -128.82 input  -65.29 | X-H torsion
[ 10718 10713 10712 10709 ] final -111.30 input   66.30 | X-H torsion
[ 10763 10752 10751 10750 ] final   -6.23 input  -60.55 | X-H torsion
[ 11005 11000 10999 10996 ] final -106.52 input  -57.11 | X-H torsion

> <Gold.Protein.ActiveResidues>
 VAL166  LYS551  ARG553  GLY616  TRP617  ASP618  TYR619  PRO620  LYS621  CYS622 
 ASP623  PHE694  ASN695  SER759  ASP760  ASP761  ALA762  ILE779  LEU786  VAL792 
 PHE793  MET794  SER795  GLU796  ALA797  LYS798  CYS799  TRP800  GLU811  SER814 

> <Gold.Protein.RotatedAtoms>
  151.2123  133.4549  159.2598 H   0  0  0  0  0  0  0  0  0  0  0  0  # atno 6907 bound_to 6896
  151.0965  134.9947  159.8438 H   0  0  0  0  0  0  0  0  0  0  0  0  # atno 6908 bound_to 6896
  152.5439  134.2052  159.8781 H   0  0  0  0  0  0  0  0  0  0  0  0  # atno 6909 bound_to 6896
  144.7132  140.0838  143.6424 H   0  0  0  0  0  0  0  0  0  0  0  0  # atno 7974 bound_to 7965
  154.4270  140.1106  156.5804 H   0  0  0  0  0  0  0  0  0  0  0  0  # atno 8008 bound_to 7997
  155.6118  140.3494  155.4606 H   0  0  0  0  0  0  0  0  0  0  0  0  # atno 8009 bound_to 7997
  156.0093  140.1216  157.0459 H   0  0  0  0  0  0  0  0  0  0  0  0  # atno 8010 bound_to 7997
  139.9462  143.6107  152.2489 H   0  0  0  0  0  0  0  0  0  0  0  0  # atno 10167 bound_to 10162
  156.0639  130.5860  150.8354 H   0  0  0  0  0  0  0  0  0  0  0  0  # atno 10718 bound_to 10713
  153.4095  135.7007  153.6369 H   0  0  0  0  0  0  0  0  0  0  0  0  # atno 10763 bound_to 10752
  153.4869  135.3681  155.2472 H   0  0  0  0  0  0  0  0  0  0  0  0  # atno 10764 bound_to 10752
  154.8716  135.4079  154.3445 H   0  0  0  0  0  0  0  0  0  0  0  0  # atno 10765 bound_to 10752
  141.1000  133.8901  157.1866 H   0  0  0  0  0  0  0  0  0  0  0  0  # atno 11005 bound_to 11000
  145.9679  139.2848  143.1116 LP  0  0  0  0  0  0  0  0  0  0  0  0  # atno 17320 bound_to 7965
  145.9149  140.9155  143.0435 LP  0  0  0  0  0  0  0  0  0  0  0  0  # atno 17321 bound_to 7965
  139.6664  144.7662  151.1864 LP  0  0  0  0  0  0  0  0  0  0  0  0  # atno 17342 bound_to 10162
  140.7596  143.5931  150.8776 LP  0  0  0  0  0  0  0  0  0  0  0  0  # atno 17343 bound_to 10162
  157.5667  131.0946  150.9478 LP  0  0  0  0  0  0  0  0  0  0  0  0  # atno 17370 bound_to 10713
  156.9704  130.5488  149.5290 LP  0  0  0  0  0  0  0  0  0  0  0  0  # atno 17371 bound_to 10713
  139.9849  135.0085  156.9838 LP  0  0  0  0  0  0  0  0  0  0  0  0  # atno 17394 bound_to 11000
  140.5045  134.1064  155.7257 LP  0  0  0  0  0  0  0  0  0  0  0  0  # atno 17395 bound_to 11000

$$$$
