AV-unprocessed.smi:1961|AV-procd|sdf|7920|dock6
  -GOLD-   2272010 83D 1   1.00000     0.00000
 Structure written by MMmdl.
 35 36  0  0  0  0  0  0  0  0  2 V2000
  152.1945  145.0969  158.5130 C   0  0  0  0  0  0  0  0  0  0  0  0
  151.6168  144.0466  159.4730 C   0  0  0  0  0  0  0  0  0  0  0  0
  152.2555  144.0879  160.8687 C   0  0  0  0  0  0  0  0  0  0  0  0
  151.6378  142.6707  158.8845 C   0  0  0  0  0  0  0  0  0  0  0  0
  152.1276  141.6072  159.5290 N   0  0  0  0  0  0  0  0  0  0  0  0
  152.0329  140.4471  158.7748 N   0  0  0  0  0  0  0  0  0  0  0  0
  151.4639  140.6438  157.5775 C   0  0  0  0  0  0  0  0  0  0  0  0
  151.2805  139.6490  156.6938 N   0  5  0  0  0  0  0  0  0  0  0  0
  150.5711  139.8709  155.5640 C   0  0  0  0  0  0  0  0  0  0  0  0
  150.9874  139.7662  154.4077 O   0  0  0  0  0  0  0  0  0  0  0  0
  149.2993  140.2313  155.7870 N   0  0  0  0  0  0  0  0  0  0  0  0
  148.3002  140.5165  154.7631 C   0  0  0  0  0  0  0  0  0  0  0  0
  147.1887  141.4350  155.2974 C   0  0  2  0  0  0  0  0  0  0  0  0
  146.4243  140.8568  156.4857 C   0  0  0  0  0  0  0  0  0  0  0  0
  145.0799  141.5656  156.4198 C   0  0  0  0  0  0  0  0  0  0  0  0
  145.0406  142.1625  155.0094 C   0  0  0  0  0  0  0  0  0  0  0  0
  146.1580  141.6007  154.3362 O   0  0  0  0  0  0  0  0  0  0  0  0
  151.0133  142.3221  157.2806 S   0  0  0  0  0  0  0  0  0  0  0  0
  151.6617  145.0929  157.5614 H   0  0  0  0  0  0  0  0  0  0  0  0
  153.2483  144.9078  158.3057 H   0  0  0  0  0  0  0  0  0  0  0  0
  152.1138  146.0997  158.9332 H   0  0  0  0  0  0  0  0  0  0  0  0
  150.5660  144.3047  159.6105 H   0  0  0  0  0  0  0  0  0  0  0  0
  151.7618  143.3895  161.5453 H   0  0  0  0  0  0  0  0  0  0  0  0
  152.1783  145.0831  161.3071 H   0  0  0  0  0  0  0  0  0  0  0  0
  153.3125  143.8224  160.8301 H   0  0  0  0  0  0  0  0  0  0  0  0
  148.9990  140.3005  156.7482 H   0  0  0  0  0  0  0  0  0  0  0  0
  148.8001  140.9840  153.9145 H   0  0  0  0  0  0  0  0  0  0  0  0
  147.8743  139.5820  154.3948 H   0  0  0  0  0  0  0  0  0  0  0  0
  147.5898  142.4149  155.5642 H   0  0  0  0  0  0  0  0  0  0  0  0
  146.2773  139.7840  156.3536 H   0  0  0  0  0  0  0  0  0  0  0  0
  146.9414  141.0115  157.4331 H   0  0  0  0  0  0  0  0  0  0  0  0
  144.2612  140.8651  156.5864 H   0  0  0  0  0  0  0  0  0  0  0  0
  145.0069  142.3533  157.1705 H   0  0  0  0  0  0  0  0  0  0  0  0
  144.1123  141.9376  154.4840 H   0  0  0  0  0  0  0  0  0  0  0  0
  145.1559  143.2467  155.0488 H   0  0  0  0  0  0  0  0  0  0  0  0
  1  2  1  0  0  0  0
  1 19  1  0  0  0  0
  1 20  1  0  0  0  0
  1 21  1  0  0  0  0
  2  3  1  0  0  0  0
  2  4  1  0  0  0  0
  2 22  1  0  0  0  0
  3 23  1  0  0  0  0
  3 24  1  0  0  0  0
  3 25  1  0  0  0  0
  4 18  1  0  0  0  0
  4  5  2  0  0  0  0
  5  6  1  0  0  0  0
  6  7  2  0  0  0  0
  7  8  1  0  0  0  0
  7 18  1  0  0  0  0
  8  9  1  0  0  0  0
  9 10  2  0  0  0  0
  9 11  1  0  0  0  0
 11 12  1  0  0  0  0
 11 26  1  0  0  0  0
 12 13  1  0  0  0  0
 12 27  1  0  0  0  0
 12 28  1  0  0  0  0
 13 17  1  0  0  0  0
 13 14  1  0  0  0  0
 13 29  1  0  0  0  0
 14 15  1  0  0  0  0
 14 30  1  0  0  0  0
 14 31  1  0  0  0  0
 15 16  1  0  0  0  0
 15 32  1  0  0  0  0
 15 33  1  0  0  0  0
 16 17  1  0  0  0  0
 16 34  1  0  0  0  0
 16 35  1  0  0  0  0
M  CHG  1   8  -1
M  END
> <s_m_source_file>
AV-unprocessed.smi

> <i_m_source_file_index>
1961

> <i_lp_mmshare_version>
43012

> <i_f3d_flags>
0

> <s_epik_input>
W0NIM11bQ0hdKFtDSDNdKWMxbm5jKHMxKVtOSF1DKD1PKVtOSF1bQ0gyXVtDQEBIXTJbQ0gyXVtDSDJdW0NIMl1PMg==

> <s_epik_cmdline>
J2VwaWtfcHl0aG9uJywgJy1waCcsICc3LjAnLCAnLXRuJywgJzgnLCAnLW1hJywgJzIwMCcsICctbWV0YWxfYmluZGluZycsICctaW1hZScsICc8aW5maWxlLm1hZT4nLCAnLW9tYWUnLCAnPG91dGZpbGUubWFlPic=

> <r_lp_tautomer_probability>
1

> <r_epik_Ionization_Penalty>
4.36179

> <r_epik_Ionization_Penalty_Charging>
4.21437

> <r_epik_Ionization_Penalty_Neutral>
0.147417

> <r_epik_State_Penalty>
4.21389

> <r_epik_Charging_Adjusted_Penalty>
8.42826

> <i_epik_Tot_Q>
-1

> <i_epik_Tot_abs_Q>
1

> <r_epik_Metal_State_Penalty>
0.693772

> <b_epik_Metal_Only>
1

> <s_lp_Force_Field>
OPLS_2005

> <r_lp_Energy>
8.68115

> <b_lp_Chiralities_Consistent>
1

> <s_lp_Variant>
AV-unprocessed.smi:1961-3

> <Gold.Version>
5.8.1

> <Gold.Id.Protein>
6NUR|6NUR_protein|mol2

> <Gold.PLP.Fitness>
36.3707

> <Gold.PLP.PLP>
-34.9424

> <Gold.PLP.part.hbond>
-1.2034

> <Gold.PLP.part.metal>
0.0000

> <Gold.PLP.part.buried>
-4.1997

> <Gold.PLP.part.nonpolar>
-29.5296

> <Gold.PLP.part.repulsive>
0.3846

> <Gold.PLP.ligand.clash>
0.0000

> <Gold.PLP.ligand.torsion>
0.8675

> <Gold.PLP.Chemscore.Hbond>
1.0000

> <Gold.PLP.Chemscore.CHOScore>
0.0000

> <Gold.PLP.Chemscore.Metal>
0.0000

> <Gold.Chemscore.Hbonds>
donor molecule, donor type, donor heavy atom, donor atom, acceptor molecule, acceptor atom, score
      P1  H  7989  7998       L1    10  1.00

> <Gold.PLP.Chemscore.Internal.Correction>
0.1633

> <Gold.Rescore>
     Score         DG    S(hbond)    S(metal)    S(lipo)     H(rot)  DE(clash)    DE(int)     intcor
     13.90     -14.85       1.00        0.00      82.71       1.42       0.02       0.93       ----

> <Gold.Chemscore.Fitness>
13.9040

> <Gold.Chemscore.DG>
-14.8539

> <Gold.Chemscore.ZeroCoef>
-5.4800

> <Gold.Chemscore.Hbond>
0.9972

> <Gold.Chemscore.Metal>
0.0000

> <Gold.Chemscore.Lipo>
82.7058

> <Gold.Chemscore.Internal_Hbond>
0.0000

> <Gold.Chemscore.DEClash>
0.0217

> <Gold.Chemscore.DEInternal>
0.9283

> <Gold.Chemscore.Rot>
1.4193

> <Gold.Chemscore.Internal.Correction>
   9.000000E+99

> <Gold.Chemscore.Hbonds>
donor molecule, donor type, donor heavy atom, donor atom, acceptor molecule, acceptor atom, score
      P1  H  7989  7998       L1    10  0.97

> <Gold.Chemscore.Hbond.Weighted>
-3.3307

> <Gold.Chemscore.Metal.Weighted>
-0.0000

> <Gold.Chemscore.Lipo.Weighted>
-9.6766

> <Gold.Chemscore.Internal_Hbond.Weighted>
0.0000

> <Gold.Chemscore.DEClash.Weighted>
0.0217

> <Gold.Chemscore.DEInternal.Weighted>
0.9283

> <Gold.Chemscore.Rot.Weighted>
3.6333

> <Gold.Chemscore.Internal.Correction.Weighted>
   9.000000E+99

> <Gold.Protein.RotatedTorsions>
[ 6907 6896 6895 6894 ] final   39.79 input  -60.11 | X-H torsion
[ 7974 7965 7964 7962 ] final  128.25 input  175.53 | X-H torsion
[ 8008 7997 7996 7995 ] final -141.00 input   59.86 | X-H torsion
[ 10167 10162 10161 10158 ] final -145.79 input  -65.29 | X-H torsion
[ 10718 10713 10712 10709 ] final   87.14 input   66.30 | X-H torsion
[ 10763 10752 10751 10750 ] final -175.28 input  -60.55 | X-H torsion
[ 11005 11000 10999 10996 ] final   98.27 input  -57.11 | X-H torsion

> <Gold.Protein.ActiveResidues>
 VAL166  LYS551  ARG553  GLY616  TRP617  ASP618  TYR619  PRO620  LYS621  CYS622 
 ASP623  PHE694  ASN695  SER759  ASP760  ASP761  ALA762  ILE779  LEU786  VAL792 
 PHE793  MET794  SER795  GLU796  ALA797  LYS798  CYS799  TRP800  GLU811  SER814 

> <Gold.Protein.RotatedAtoms>
  152.1742  134.8809  160.0531 H   0  0  0  0  0  0  0  0  0  0  0  0  # atno 6907 bound_to 6896
  151.9757  133.3736  159.4096 H   0  0  0  0  0  0  0  0  0  0  0  0  # atno 6908 bound_to 6896
  150.6906  134.4015  159.5165 H   0  0  0  0  0  0  0  0  0  0  0  0  # atno 6909 bound_to 6896
  145.0416  139.3959  143.5099 H   0  0  0  0  0  0  0  0  0  0  0  0  # atno 7974 bound_to 7965
  155.4706  140.0552  157.2980 H   0  0  0  0  0  0  0  0  0  0  0  0  # atno 8008 bound_to 7997
  154.4700  140.2036  155.9974 H   0  0  0  0  0  0  0  0  0  0  0  0  # atno 8009 bound_to 7997
  156.1039  140.3215  155.7984 H   0  0  0  0  0  0  0  0  0  0  0  0  # atno 8010 bound_to 7997
  139.7773  143.8151  152.2634 H   0  0  0  0  0  0  0  0  0  0  0  0  # atno 10167 bound_to 10162
  157.6937  131.0243  150.3078 H   0  0  0  0  0  0  0  0  0  0  0  0  # atno 10718 bound_to 10713
  154.5863  135.2841  155.0681 H   0  0  0  0  0  0  0  0  0  0  0  0  # atno 10763 bound_to 10752
  154.1999  135.6426  153.5088 H   0  0  0  0  0  0  0  0  0  0  0  0  # atno 10764 bound_to 10752
  153.0105  135.5466  154.6534 H   0  0  0  0  0  0  0  0  0  0  0  0  # atno 10765 bound_to 10752
  139.8773  134.9041  156.4431 H   0  0  0  0  0  0  0  0  0  0  0  0  # atno 11005 bound_to 11000
  146.3510  140.0019  142.8675 LP  0  0  0  0  0  0  0  0  0  0  0  0  # atno 17320 bound_to 7965
  145.1641  140.9688  143.4360 LP  0  0  0  0  0  0  0  0  0  0  0  0  # atno 17321 bound_to 7965
  139.8203  144.7298  150.9581 LP  0  0  0  0  0  0  0  0  0  0  0  0  # atno 17342 bound_to 10162
  140.7817  143.4165  151.0909 LP  0  0  0  0  0  0  0  0  0  0  0  0  # atno 17343 bound_to 10162
  156.3584  130.3843  149.7271 LP  0  0  0  0  0  0  0  0  0  0  0  0  # atno 17370 bound_to 10713
  156.4726  130.8003  151.3021 LP  0  0  0  0  0  0  0  0  0  0  0  0  # atno 17371 bound_to 10713
  140.8985  133.7796  155.9653 LP  0  0  0  0  0  0  0  0  0  0  0  0  # atno 17394 bound_to 11000
  140.8676  134.2765  157.5205 LP  0  0  0  0  0  0  0  0  0  0  0  0  # atno 17395 bound_to 11000

$$$$
