AV-unprocessed.smi:1218|AV-procd|sdf|5110|dock6
  -GOLD-   22720 4163D 1   1.00000     0.00000
 Structure written by MMmdl.
 44 45  0  0  0  0  0  0  0  0  1 V2000
  153.0416  142.6142  159.4609 C   0  0  0  0  0  0  0  0  0  0  0  0
  152.9520  141.9216  160.8298 C   0  0  0  0  0  0  0  0  0  0  0  0
  152.7299  142.9709  161.9326 C   0  0  0  0  0  0  0  0  0  0  0  0
  154.2090  141.0608  161.0988 C   0  0  0  0  0  0  0  0  0  0  0  0
  154.1572  139.6899  160.5887 N   0  0  0  0  0  0  0  0  0  0  0  0
  153.2948  138.8581  161.4211 C   0  0  0  0  0  0  0  0  0  0  0  0
  153.2185  137.4117  160.9066 C   0  0  0  0  0  0  0  0  0  0  0  0
  152.7736  137.4159  159.5553 O   0  0  0  0  0  0  0  0  0  0  0  0
  153.6250  138.1637  158.6903 C   0  0  1  0  0  0  0  0  0  0  0  0
  153.0724  138.0919  157.2568 C   0  0  0  0  0  0  0  0  0  0  0  0
  152.0730  139.1272  157.0142 N   0  0  0  0  0  0  0  0  0  0  0  0
  151.9585  139.8489  155.8889 C   0  0  0  0  0  0  0  0  0  0  0  0
  152.6949  139.6972  154.9128 O   0  0  0  0  0  0  0  0  0  0  0  0
  150.8381  140.8970  155.8858 C   0  0  0  0  0  0  0  0  0  0  0  0
  149.7557  140.5692  154.9714 N   0  0  0  0  0  0  0  0  0  0  0  0
  148.7072  141.3675  154.5633 C   0  0  0  0  0  0  0  0  0  0  0  0
  147.9444  140.6298  153.7042 C   0  0  0  0  0  0  0  0  0  0  0  0
  148.6165  139.3770  153.6466 C   0  0  0  0  0  0  0  0  0  0  0  0
  149.7014  139.3444  154.4036 N   0  0  0  0  0  0  0  0  0  0  0  0
  153.6951  139.6157  159.2048 C   0  0  0  0  0  0  0  0  0  0  0  0
  153.9023  143.2820  159.4090 H   0  0  0  0  0  0  0  0  0  0  0  0
  152.1482  143.2061  159.2594 H   0  0  0  0  0  0  0  0  0  0  0  0
  153.1367  141.8840  158.6566 H   0  0  0  0  0  0  0  0  0  0  0  0
  152.0775  141.2700  160.7953 H   0  0  0  0  0  0  0  0  0  0  0  0
  153.5563  143.6810  161.9736 H   0  0  0  0  0  0  0  0  0  0  0  0
  152.6412  142.5139  162.9172 H   0  0  0  0  0  0  0  0  0  0  0  0
  151.8157  143.5381  161.7544 H   0  0  0  0  0  0  0  0  0  0  0  0
  155.0607  141.5556  160.6297 H   0  0  0  0  0  0  0  0  0  0  0  0
  154.4384  141.0554  162.1656 H   0  0  0  0  0  0  0  0  0  0  0  0
  153.6616  138.8548  162.4481 H   0  0  0  0  0  0  0  0  0  0  0  0
  152.2894  139.2812  161.4502 H   0  0  0  0  0  0  0  0  0  0  0  0
  154.1908  136.9218  160.9773 H   0  0  0  0  0  0  0  0  0  0  0  0
  152.5210  136.8303  161.5095 H   0  0  0  0  0  0  0  0  0  0  0  0
  154.6258  137.7274  158.7089 H   0  0  0  0  0  0  0  0  0  0  0  0
  153.8827  138.1469  156.5278 H   0  0  0  0  0  0  0  0  0  0  0  0
  152.5859  137.1287  157.1011 H   0  0  0  0  0  0  0  0  0  0  0  0
  151.4275  139.3198  157.7664 H   0  0  0  0  0  0  0  0  0  0  0  0
  150.4224  140.9887  156.8899 H   0  0  0  0  0  0  0  0  0  0  0  0
  151.2537  141.8702  155.6196 H   0  0  0  0  0  0  0  0  0  0  0  0
  148.5920  142.3812  154.9174 H   0  0  0  0  0  0  0  0  0  0  0  0
  147.0430  140.9374  153.1956 H   0  0  0  0  0  0  0  0  0  0  0  0
  148.3502  138.4968  153.0805 H   0  0  0  0  0  0  0  0  0  0  0  0
  152.7124  140.0818  159.1180 H   0  0  0  0  0  0  0  0  0  0  0  0
  154.3684  140.1769  158.5578 H   0  0  0  0  0  0  0  0  0  0  0  0
  1  2  1  0  0  0  0
  1 21  1  0  0  0  0
  1 22  1  0  0  0  0
  1 23  1  0  0  0  0
  2  3  1  0  0  0  0
  2  4  1  0  0  0  0
  2 24  1  0  0  0  0
  3 25  1  0  0  0  0
  3 26  1  0  0  0  0
  3 27  1  0  0  0  0
  4  5  1  0  0  0  0
  4 28  1  0  0  0  0
  4 29  1  0  0  0  0
  5 20  1  0  0  0  0
  5  6  1  0  0  0  0
  6  7  1  0  0  0  0
  6 30  1  0  0  0  0
  6 31  1  0  0  0  0
  7  8  1  0  0  0  0
  7 32  1  0  0  0  0
  7 33  1  0  0  0  0
  8  9  1  0  0  0  0
  9 10  1  0  0  0  0
  9 20  1  0  0  0  0
  9 34  1  0  0  0  0
 10 11  1  0  0  0  0
 10 35  1  0  0  0  0
 10 36  1  0  0  0  0
 11 12  1  0  0  0  0
 11 37  1  0  0  0  0
 12 13  2  0  0  0  0
 12 14  1  0  0  0  0
 14 15  1  0  0  0  0
 14 38  1  0  0  0  0
 14 39  1  0  0  0  0
 15 19  1  0  0  0  0
 15 16  1  0  0  0  0
 16 17  2  0  0  0  0
 16 40  1  0  0  0  0
 17 18  1  0  0  0  0
 17 41  1  0  0  0  0
 18 19  2  0  0  0  0
 18 42  1  0  0  0  0
 20 43  1  0  0  0  0
 20 44  1  0  0  0  0
M  END
> <s_m_source_file>
AV-unprocessed.smi

> <i_m_source_file_index>
1218

> <i_lp_mmshare_version>
43012

> <i_f3d_flags>
0

> <s_epik_input>
W0NIM11bQ0hdKFtDSDNdKVtDSDJdTjFbQ0gyXVtDSDJdT1tDQEhdKFtDSDJdMSlbQ0gyXVtOSF1DKD1PKVtDSDJdbjJbY0hdW2NIXVtjSF1uMg==

> <s_epik_cmdline>
J2VwaWtfcHl0aG9uJywgJy1waCcsICc3LjAnLCAnLXRuJywgJzgnLCAnLW1hJywgJzIwMCcsICctbWV0YWxfYmluZGluZycsICctaW1hZScsICc8aW5maWxlLm1hZT4nLCAnLW9tYWUnLCAnPG91dGZpbGUubWFlPic=

> <r_lp_tautomer_probability>
1

> <r_epik_Ionization_Penalty>
1.10621

> <r_epik_Ionization_Penalty_Charging>
0

> <r_epik_Ionization_Penalty_Neutral>
1.10621

> <r_epik_State_Penalty>
1.16377

> <r_epik_Charging_Adjusted_Penalty>
1.16377

> <i_epik_Tot_Q>
0

> <i_epik_Tot_abs_Q>
0

> <r_epik_Metal_State_Penalty>
1.16377

> <b_epik_Metal_Only>
0

> <s_lp_Force_Field>
OPLS_2005

> <r_lp_Energy>
27.1639

> <b_lp_Chiralities_Consistent>
1

> <s_lp_Variant>
AV-unprocessed.smi:1218-5

> <Gold.Version>
5.8.1

> <Gold.Id.Protein>
6NUR|6NUR_protein|mol2

> <Gold.PLP.Fitness>
43.9522

> <Gold.PLP.PLP>
-35.7880

> <Gold.PLP.part.hbond>
-2.0000

> <Gold.PLP.part.metal>
0.0000

> <Gold.PLP.part.buried>
1.2088

> <Gold.PLP.part.nonpolar>
-34.4023

> <Gold.PLP.part.repulsive>
0.2774

> <Gold.PLP.ligand.clash>
0.0000

> <Gold.PLP.ligand.torsion>
1.0606

> <Gold.PLP.Chemscore.Hbond>
1.4134

> <Gold.PLP.Chemscore.CHOScore>
1.9690

> <Gold.PLP.Chemscore.Metal>
0.0000

> <Gold.Chemscore.Hbonds>
donor molecule, donor type, donor heavy atom, donor atom, acceptor molecule, acceptor atom, score
      P1  H  7989  7998       L1    13  0.46
      P1  H  7997  8010       L1    13  0.78
      L1  C    16    40       P1  8028  1.00
      L1  C    18    42       P1  7948  0.78

> <Gold.PLP.Chemscore.Internal.Correction>
0.1381

> <Gold.Rescore>
     Score         DG    S(hbond)    S(metal)    S(lipo)     H(rot)  DE(clash)    DE(int)     intcor
     13.67     -15.10       0.95        0.00      96.77       1.90       0.22       1.21       ----

> <Gold.Chemscore.Fitness>
13.6743

> <Gold.Chemscore.DG>
-15.1032

> <Gold.Chemscore.ZeroCoef>
-5.4800

> <Gold.Chemscore.Hbond>
0.9455

> <Gold.Chemscore.Metal>
0.0000

> <Gold.Chemscore.Lipo>
96.7672

> <Gold.Chemscore.Internal_Hbond>
0.0000

> <Gold.Chemscore.DEClash>
0.2216

> <Gold.Chemscore.DEInternal>
1.2072

> <Gold.Chemscore.Rot>
1.8970

> <Gold.Chemscore.Internal.Correction>
   9.000000E+99

> <Gold.Chemscore.Hbonds>
donor molecule, donor type, donor heavy atom, donor atom, acceptor molecule, acceptor atom, score
      P1  H  7989  7998       L1    13  0.13
      P1  H  7997  8010       L1    13  0.26

> <Gold.Chemscore.Hbond.Weighted>
-3.1578

> <Gold.Chemscore.Metal.Weighted>
-0.0000

> <Gold.Chemscore.Lipo.Weighted>
-11.3218

> <Gold.Chemscore.Internal_Hbond.Weighted>
0.0000

> <Gold.Chemscore.DEClash.Weighted>
0.2216

> <Gold.Chemscore.DEInternal.Weighted>
1.2072

> <Gold.Chemscore.Rot.Weighted>
4.8564

> <Gold.Chemscore.Internal.Correction.Weighted>
   9.000000E+99

> <Gold.Protein.RotatedTorsions>
[ 6907 6896 6895 6894 ] final  146.72 input  -60.11 | X-H torsion
[ 7974 7965 7964 7962 ] final   82.15 input  175.53 | X-H torsion
[ 8008 7997 7996 7995 ] final  118.89 input   59.86 | X-H torsion
[ 10167 10162 10161 10158 ] final   95.04 input  -65.29 | X-H torsion
[ 10718 10713 10712 10709 ] final -121.85 input   66.30 | X-H torsion
[ 10763 10752 10751 10750 ] final -101.48 input  -60.55 | X-H torsion
[ 11005 11000 10999 10996 ] final -102.94 input  -57.11 | X-H torsion

> <Gold.Protein.ActiveResidues>
 VAL166  LYS551  ARG553  GLY616  TRP617  ASP618  TYR619  PRO620  LYS621  CYS622 
 ASP623  PHE694  ASN695  SER759  ASP760  ASP761  ALA762  ILE779  LEU786  VAL792 
 PHE793  MET794  SER795  GLU796  ALA797  LYS798  CYS799  TRP800  GLU811  SER814 

> <Gold.Protein.RotatedAtoms>
  152.1642  133.4601  159.4876 H   0  0  0  0  0  0  0  0  0  0  0  0  # atno 6907 bound_to 6896
  150.6911  134.2033  159.4340 H   0  0  0  0  0  0  0  0  0  0  0  0  # atno 6908 bound_to 6896
  151.9937  134.9965  160.0613 H   0  0  0  0  0  0  0  0  0  0  0  0  # atno 6909 bound_to 6896
  145.6289  139.2400  143.2096 H   0  0  0  0  0  0  0  0  0  0  0  0  # atno 7974 bound_to 7965
  156.2569  140.2865  156.0906 H   0  0  0  0  0  0  0  0  0  0  0  0  # atno 8008 bound_to 7997
  155.1467  140.0396  157.2829 H   0  0  0  0  0  0  0  0  0  0  0  0  # atno 8009 bound_to 7997
  154.6490  140.2540  155.7241 H   0  0  0  0  0  0  0  0  0  0  0  0  # atno 8010 bound_to 7997
  139.8027  144.6807  150.9744 H   0  0  0  0  0  0  0  0  0  0  0  0  # atno 10167 bound_to 10162
  156.1371  130.6438  150.9713 H   0  0  0  0  0  0  0  0  0  0  0  0  # atno 10718 bound_to 10713
  154.7661  135.4896  153.9557 H   0  0  0  0  0  0  0  0  0  0  0  0  # atno 10763 bound_to 10752
  153.1310  135.6752  153.9186 H   0  0  0  0  0  0  0  0  0  0  0  0  # atno 10764 bound_to 10752
  153.8890  135.3123  155.3425 H   0  0  0  0  0  0  0  0  0  0  0  0  # atno 10765 bound_to 10752
  141.1167  133.8599  157.1423 H   0  0  0  0  0  0  0  0  0  0  0  0  # atno 11005 bound_to 11000
  146.1373  140.7106  142.9384 LP  0  0  0  0  0  0  0  0  0  0  0  0  # atno 17320 bound_to 7965
  144.7201  140.4346  143.7014 LP  0  0  0  0  0  0  0  0  0  0  0  0  # atno 17321 bound_to 7965
  140.7820  143.4265  151.0760 LP  0  0  0  0  0  0  0  0  0  0  0  0  # atno 17342 bound_to 10162
  139.7936  143.8183  152.3155 LP  0  0  0  0  0  0  0  0  0  0  0  0  # atno 17343 bound_to 10162
  157.6542  131.0892  150.7984 LP  0  0  0  0  0  0  0  0  0  0  0  0  # atno 17370 bound_to 10713
  156.8063  130.4937  149.5362 LP  0  0  0  0  0  0  0  0  0  0  0  0  # atno 17371 bound_to 10713
  140.0095  134.9994  157.0365 LP  0  0  0  0  0  0  0  0  0  0  0  0  # atno 17394 bound_to 11000
  140.4624  134.1470  155.7193 LP  0  0  0  0  0  0  0  0  0  0  0  0  # atno 17395 bound_to 11000

$$$$
