AV-unprocessed.smi:397|AV-procd|sdf|2488|dock3
  -GOLD-   2262022433D 1   1.00000     0.00000
 Structure written by MMmdl.
 37 38  0  0  0  0  0  0  0  0  1 V2000
  147.3959  136.3455  162.6026 C   0  0  0  0  0  0  0  0  0  0  0  0
  147.5030  137.1901  161.4706 O   0  0  0  0  0  0  0  0  0  0  0  0
  147.1446  136.5344  160.2652 C   0  0  0  0  0  0  0  0  0  0  0  0
  147.9345  135.2243  160.1298 C   0  0  0  0  0  0  0  0  0  0  0  0
  148.4683  135.0578  158.7826 N   0  0  0  0  0  0  0  0  0  0  0  0
  149.2356  135.9490  158.1375 C   0  0  0  0  0  0  0  0  0  0  0  0
  149.5530  137.0387  158.6165 O   0  0  0  0  0  0  0  0  0  0  0  0
  149.7053  135.5340  156.7348 C   0  0  0  0  0  0  0  0  0  0  0  0
  149.9615  136.6814  155.8355 N   0  0  0  0  0  0  0  0  0  0  0  0
  151.3012  137.1064  155.6535 C   0  0  0  0  0  0  0  0  0  0  0  0
  152.2329  136.5329  156.2212 O   0  0  0  0  0  0  0  0  0  0  0  0
  151.4813  138.2518  154.7676 C   0  0  0  0  0  0  0  0  0  0  0  0
  152.8161  138.7049  154.5541 C   0  0  0  0  0  0  0  0  0  0  0  0
  153.9050  139.0671  154.4039 N   0  0  0  0  0  0  0  0  0  0  0  0
  150.4254  138.8495  154.1788 C   0  0  0  0  0  0  0  0  0  0  0  0
  149.1217  138.4307  154.3730 N   0  0  0  0  0  0  0  0  0  0  0  0
  147.9829  139.0739  153.7482 C   0  0  0  0  0  0  0  0  0  0  0  0
  147.7978  140.5712  153.8769 C   0  0  0  0  0  0  0  0  0  0  0  0
  146.8633  139.6298  154.6029 C   0  0  0  0  0  0  0  0  0  0  0  0
  148.8605  137.3273  155.2206 C   0  0  0  0  0  0  0  0  0  0  0  0
  147.7107  136.9318  155.4282 O   0  0  0  0  0  0  0  0  0  0  0  0
  147.6805  136.8974  163.4984 H   0  0  0  0  0  0  0  0  0  0  0  0
  148.0575  135.4828  162.5143 H   0  0  0  0  0  0  0  0  0  0  0  0
  146.3734  135.9905  162.7357 H   0  0  0  0  0  0  0  0  0  0  0  0
  146.0723  136.3339  160.2413 H   0  0  0  0  0  0  0  0  0  0  0  0
  147.3724  137.1850  159.4196 H   0  0  0  0  0  0  0  0  0  0  0  0
  148.7819  135.2434  160.8152 H   0  0  0  0  0  0  0  0  0  0  0  0
  147.3214  134.3702  160.4230 H   0  0  0  0  0  0  0  0  0  0  0  0
  148.2525  134.1912  158.3116 H   0  0  0  0  0  0  0  0  0  0  0  0
  150.6000  134.9167  156.8326 H   0  0  0  0  0  0  0  0  0  0  0  0
  148.9639  134.8536  156.3135 H   0  0  0  0  0  0  0  0  0  0  0  0
  150.6221  139.6911  153.5322 H   0  0  0  0  0  0  0  0  0  0  0  0
  147.6406  138.6751  152.7950 H   0  0  0  0  0  0  0  0  0  0  0  0
  148.5112  141.1368  154.4724 H   0  0  0  0  0  0  0  0  0  0  0  0
  147.4018  141.0995  153.0120 H   0  0  0  0  0  0  0  0  0  0  0  0
  145.8502  139.5361  154.2170 H   0  0  0  0  0  0  0  0  0  0  0  0
  146.9481  139.5672  155.6854 H   0  0  0  0  0  0  0  0  0  0  0  0
  1  2  1  0  0  0  0
  1 22  1  0  0  0  0
  1 23  1  0  0  0  0
  1 24  1  0  0  0  0
  2  3  1  0  0  0  0
  3  4  1  0  0  0  0
  3 25  1  0  0  0  0
  3 26  1  0  0  0  0
  4  5  1  0  0  0  0
  4 27  1  0  0  0  0
  4 28  1  0  0  0  0
  5  6  1  0  0  0  0
  5 29  1  0  0  0  0
  6  7  2  0  0  0  0
  6  8  1  0  0  0  0
  8  9  1  0  0  0  0
  8 30  1  0  0  0  0
  8 31  1  0  0  0  0
  9 20  1  0  0  0  0
  9 10  1  0  0  0  0
 10 11  2  0  0  0  0
 10 12  1  0  0  0  0
 12 13  1  0  0  0  0
 12 15  2  0  0  0  0
 13 14  3  0  0  0  0
 15 16  1  0  0  0  0
 15 32  1  0  0  0  0
 16 17  1  0  0  0  0
 16 20  1  0  0  0  0
 17 19  1  0  0  0  0
 17 18  1  0  0  0  0
 17 33  1  0  0  0  0
 18 19  1  0  0  0  0
 18 34  1  0  0  0  0
 18 35  1  0  0  0  0
 19 36  1  0  0  0  0
 19 37  1  0  0  0  0
 20 21  2  0  0  0  0
M  END
> <s_m_source_file>
AV-unprocessed.smi

> <i_m_source_file_index>
397

> <i_lp_mmshare_version>
43012

> <i_f3d_flags>
0

> <s_epik_input>
W0NIM11PW0NIMl1bQ0gyXVtOSF1DKD1PKVtDSDJdbjFjKD1PKWMoQyNOKVtjSF1uKGMxPU8pW0NIXTJbQ0gyXVtDSDJdMg==

> <s_epik_cmdline>
J2VwaWtfcHl0aG9uJywgJy1waCcsICc3LjAnLCAnLXRuJywgJzgnLCAnLW1hJywgJzIwMCcsICctbWV0YWxfYmluZGluZycsICctaW1hZScsICc8aW5maWxlLm1hZT4nLCAnLW9tYWUnLCAnPG91dGZpbGUubWFlPic=

> <r_lp_tautomer_probability>
1

> <r_epik_Ionization_Penalty>
2.64697e-08

> <r_epik_Ionization_Penalty_Charging>
8.39351e-11

> <r_epik_Ionization_Penalty_Neutral>
2.63858e-08

> <r_epik_State_Penalty>
-0

> <r_epik_Charging_Adjusted_Penalty>
8.39351e-11

> <i_epik_Tot_Q>
0

> <i_epik_Tot_abs_Q>
0

> <r_epik_Metal_State_Penalty>
-0

> <b_epik_Metal_Only>
0

> <s_lp_Force_Field>
OPLS_2005

> <r_lp_Energy>
30.955

> <b_lp_Chiralities_Consistent>
1

> <s_lp_Variant>
AV-unprocessed.smi:397-1

> <Gold.Version>
5.8.1

> <Gold.Id.Protein>
6NUR|6NUR_protein|mol2

> <Gold.PLP.Fitness>
43.2339

> <Gold.PLP.PLP>
-31.3800

> <Gold.PLP.part.hbond>
-4.0000

> <Gold.PLP.part.metal>
0.0000

> <Gold.PLP.part.buried>
-4.3657

> <Gold.PLP.part.nonpolar>
-22.9104

> <Gold.PLP.part.repulsive>
0.1711

> <Gold.PLP.ligand.clash>
0.0000

> <Gold.PLP.ligand.torsion>
1.0511

> <Gold.PLP.Chemscore.Hbond>
3.8080

> <Gold.PLP.Chemscore.CHOScore>
0.7823

> <Gold.PLP.Chemscore.Metal>
0.0000

> <Gold.Chemscore.Hbonds>
donor molecule, donor type, donor heavy atom, donor atom, acceptor molecule, acceptor atom, score
      P1  H  6931  6943       L1     2  0.94
      P1  H  6934  6947       L1     2  0.86
      P1  H  7997  8008       L1    14  1.00
      P1  H 10752 10763       L1    11  1.00
      L1  C    15    32       P1  7957  0.78

> <Gold.PLP.Chemscore.Internal.Correction>
0.1853

> <Gold.Rescore>
     Score         DG    S(hbond)    S(metal)    S(lipo)     H(rot)  DE(clash)    DE(int)     intcor
     12.91     -15.47       2.91        0.00      56.17       2.46       0.03       2.53       ----

> <Gold.Chemscore.Fitness>
12.9066

> <Gold.Chemscore.DG>
-15.4651

> <Gold.Chemscore.ZeroCoef>
-5.4800

> <Gold.Chemscore.Hbond>
2.9093

> <Gold.Chemscore.Metal>
0.0000

> <Gold.Chemscore.Lipo>
56.1731

> <Gold.Chemscore.Internal_Hbond>
0.0000

> <Gold.Chemscore.DEClash>
0.0318

> <Gold.Chemscore.DEInternal>
2.5267

> <Gold.Chemscore.Rot>
2.4626

> <Gold.Chemscore.Internal.Correction>
   9.000000E+99

> <Gold.Chemscore.Hbonds>
donor molecule, donor type, donor heavy atom, donor atom, acceptor molecule, acceptor atom, score
      P1  H  6931  6943       L1     2  0.31
      P1  H  6934  6947       L1     2  0.22
      P1  H  7997  8008       L1    14  0.97
      P1  H 10752 10763       L1    11  0.90

> <Gold.Chemscore.Hbond.Weighted>
-9.7172

> <Gold.Chemscore.Metal.Weighted>
-0.0000

> <Gold.Chemscore.Lipo.Weighted>
-6.5723

> <Gold.Chemscore.Internal_Hbond.Weighted>
0.0000

> <Gold.Chemscore.DEClash.Weighted>
0.0318

> <Gold.Chemscore.DEInternal.Weighted>
2.5267

> <Gold.Chemscore.Rot.Weighted>
6.3043

> <Gold.Chemscore.Internal.Correction.Weighted>
   9.000000E+99

> <Gold.Protein.RotatedTorsions>
[ 6907 6896 6895 6894 ] final  109.13 input  -60.11 | X-H torsion
[ 7974 7965 7964 7962 ] final  -75.33 input  175.53 | X-H torsion
[ 8008 7997 7996 7995 ] final   13.21 input   59.86 | X-H torsion
[ 10167 10162 10161 10158 ] final  150.71 input  -65.29 | X-H torsion
[ 10718 10713 10712 10709 ] final -163.24 input   66.30 | X-H torsion
[ 10763 10752 10751 10750 ] final   98.41 input  -60.55 | X-H torsion
[ 11005 11000 10999 10996 ] final   73.82 input  -57.11 | X-H torsion

> <Gold.Protein.ActiveResidues>
 VAL166  LYS551  ARG553  GLY616  TRP617  ASP618  TYR619  PRO620  LYS621  CYS622 
 ASP623  PHE694  ASN695  SER759  ASP760  ASP761  ALA762  ILE779  LEU786  VAL792 
 PHE793  MET794  SER795  GLU796  ALA797  LYS798  CYS799  TRP800  GLU811  SER814 

> <Gold.Protein.RotatedAtoms>
  152.5081  133.8989  159.7430 H   0  0  0  0  0  0  0  0  0  0  0  0  # atno 6907 bound_to 6896
  150.9409  133.6649  159.2798 H   0  0  0  0  0  0  0  0  0  0  0  0  # atno 6908 bound_to 6896
  151.3960  135.0968  159.9594 H   0  0  0  0  0  0  0  0  0  0  0  0  # atno 6909 bound_to 6896
  145.6274  140.9347  143.1105 H   0  0  0  0  0  0  0  0  0  0  0  0  # atno 7974 bound_to 7965
  154.8313  140.2900  155.5720 H   0  0  0  0  0  0  0  0  0  0  0  0  # atno 8008 bound_to 7997
  156.3005  140.2531  156.3170 H   0  0  0  0  0  0  0  0  0  0  0  0  # atno 8009 bound_to 7997
  154.9228  140.0385  157.1996 H   0  0  0  0  0  0  0  0  0  0  0  0  # atno 8010 bound_to 7997
  139.4847  144.5500  151.7417 H   0  0  0  0  0  0  0  0  0  0  0  0  # atno 10167 bound_to 10162
  156.6219  130.8894  151.2959 H   0  0  0  0  0  0  0  0  0  0  0  0  # atno 10718 bound_to 10713
  153.2887  135.4149  155.1146 H   0  0  0  0  0  0  0  0  0  0  0  0  # atno 10763 bound_to 10752
  154.8513  135.3513  154.6011 H   0  0  0  0  0  0  0  0  0  0  0  0  # atno 10764 bound_to 10752
  153.6433  135.7056  153.5292 H   0  0  0  0  0  0  0  0  0  0  0  0  # atno 10765 bound_to 10752
  139.9421  134.7380  156.1073 H   0  0  0  0  0  0  0  0  0  0  0  0  # atno 11005 bound_to 11000
  144.7207  139.8040  143.7383 LP  0  0  0  0  0  0  0  0  0  0  0  0  # atno 17320 bound_to 7965
  146.1384  139.4434  143.0125 LP  0  0  0  0  0  0  0  0  0  0  0  0  # atno 17321 bound_to 7965
  140.5053  144.1108  150.5981 LP  0  0  0  0  0  0  0  0  0  0  0  0  # atno 17342 bound_to 10162
  140.4015  143.2701  151.9942 LP  0  0  0  0  0  0  0  0  0  0  0  0  # atno 17343 bound_to 10162
  157.7225  130.9578  150.1497 LP  0  0  0  0  0  0  0  0  0  0  0  0  # atno 17370 bound_to 10713
  156.2305  130.3681  149.8451 LP  0  0  0  0  0  0  0  0  0  0  0  0  # atno 17371 bound_to 10713
  141.1059  133.6660  156.2863 LP  0  0  0  0  0  0  0  0  0  0  0  0  # atno 17394 bound_to 11000
  140.5926  134.5635  157.5502 LP  0  0  0  0  0  0  0  0  0  0  0  0  # atno 17395 bound_to 11000

$$$$
