AV-unprocessed.smi:484|AV-procd|sdf|2689|dock6
  -GOLD-   2262023123D 1   1.00000     0.00000
 Structure written by MMmdl.
 47 49  0  0  0  0  0  0  0  0  2 V2000
  150.2235  135.8969  161.5490 C   0  0  0  0  0  0  0  0  0  0  0  0
  148.8339  135.4966  161.0415 C   0  0  0  0  0  0  0  0  0  0  0  0
  148.2438  136.5329  160.1040 C   0  0  0  0  0  0  0  0  0  0  0  0
  147.0297  137.1716  160.4257 C   0  0  0  0  0  0  0  0  0  0  0  0
  146.4850  138.1342  159.5544 C   0  0  0  0  0  0  0  0  0  0  0  0
  147.1391  138.4733  158.3524 C   0  0  0  0  0  0  0  0  0  0  0  0
  146.5333  139.4230  157.5585 O   0  0  0  0  0  0  0  0  0  0  0  0
  147.2210  139.8708  156.3968 C   0  0  0  0  0  0  0  0  0  0  0  0
  146.2622  140.6738  155.5034 C   0  0  2  0  0  0  0  0  0  0  0  0
  145.1989  139.8370  155.0949 O   0  0  0  0  0  0  0  0  0  0  0  0
  146.9578  141.3487  154.3033 C   0  0  0  0  0  0  0  0  0  0  0  0
  148.0211  140.5158  153.7197 N   0  0  0  0  0  0  0  0  0  0  0  0
  147.9365  139.4922  152.8225 C   0  0  0  0  0  0  0  0  0  0  0  0
  146.6857  138.9615  152.1970 C   0  0  0  0  0  0  0  0  0  0  0  0
  146.9222  137.9259  151.2661 O   0  0  0  0  0  0  0  0  0  0  0  0
  149.2064  139.0474  152.5995 N   0  3  0  0  0  0  0  0  0  0  0  0
  150.1094  139.7893  153.3613 C   0  0  0  0  0  0  0  0  0  0  0  0
  151.4942  139.7050  153.4694 C   0  0  0  0  0  0  0  0  0  0  0  0
  152.1173  140.6192  154.3440 C   0  0  0  0  0  0  0  0  0  0  0  0
  151.3679  141.5674  155.0700 C   0  0  0  0  0  0  0  0  0  0  0  0
  149.9644  141.6427  154.9523 C   0  0  0  0  0  0  0  0  0  0  0  0
  149.3553  140.7364  154.0842 C   0  0  0  0  0  0  0  0  0  0  0  0
  148.3614  137.8290  158.0350 C   0  0  0  0  0  0  0  0  0  0  0  0
  148.9076  136.8668  158.9066 C   0  0  0  0  0  0  0  0  0  0  0  0
  150.6260  135.1369  162.2187 H   0  0  0  0  0  0  0  0  0  0  0  0
  150.1860  136.8383  162.0979 H   0  0  0  0  0  0  0  0  0  0  0  0
  150.9248  136.0177  160.7227 H   0  0  0  0  0  0  0  0  0  0  0  0
  148.8911  134.5371  160.5257 H   0  0  0  0  0  0  0  0  0  0  0  0
  148.1596  135.3504  161.8864 H   0  0  0  0  0  0  0  0  0  0  0  0
  146.5128  136.9261  161.3419 H   0  0  0  0  0  0  0  0  0  0  0  0
  145.5537  138.6172  159.8113 H   0  0  0  0  0  0  0  0  0  0  0  0
  148.0903  140.4750  156.6627 H   0  0  0  0  0  0  0  0  0  0  0  0
  147.5765  139.0041  155.8371 H   0  0  0  0  0  0  0  0  0  0  0  0
  145.8096  141.4507  156.1204 H   0  0  0  0  0  0  0  0  0  0  0  0
  144.8941  140.1330  154.2507 H   0  0  0  0  0  0  0  0  0  0  0  0
  146.2291  141.5413  153.5151 H   0  0  0  0  0  0  0  0  0  0  0  0
  147.3721  142.3202  154.5726 H   0  0  0  0  0  0  0  0  0  0  0  0
  146.0240  138.5869  152.9781 H   0  0  0  0  0  0  0  0  0  0  0  0
  146.1651  139.7771  151.6943 H   0  0  0  0  0  0  0  0  0  0  0  0
  147.6824  137.4385  151.5458 H   0  0  0  0  0  0  0  0  0  0  0  0
  152.0695  138.9779  152.9152 H   0  0  0  0  0  0  0  0  0  0  0  0
  153.1910  140.5917  154.4613 H   0  0  0  0  0  0  0  0  0  0  0  0
  151.8793  142.2510  155.7323 H   0  0  0  0  0  0  0  0  0  0  0  0
  149.4019  142.3705  155.5178 H   0  0  0  0  0  0  0  0  0  0  0  0
  148.9010  138.0547  157.1280 H   0  0  0  0  0  0  0  0  0  0  0  0
  149.8407  136.3857  158.6521 H   0  0  0  0  0  0  0  0  0  0  0  0
  149.4313  138.2879  151.9696 H   0  0  0  0  0  0  0  0  0  0  0  0
  1  2  1  0  0  0  0
  1 25  1  0  0  0  0
  1 26  1  0  0  0  0
  1 27  1  0  0  0  0
  2  3  1  0  0  0  0
  2 28  1  0  0  0  0
  2 29  1  0  0  0  0
  3 24  1  0  0  0  0
  3  4  2  0  0  0  0
  4  5  1  0  0  0  0
  4 30  1  0  0  0  0
  5  6  2  0  0  0  0
  5 31  1  0  0  0  0
  6  7  1  0  0  0  0
  6 23  1  0  0  0  0
  7  8  1  0  0  0  0
  8  9  1  0  0  0  0
  8 32  1  0  0  0  0
  8 33  1  0  0  0  0
  9 10  1  0  0  0  0
  9 11  1  0  0  0  0
  9 34  1  0  0  0  0
 10 35  1  0  0  0  0
 11 12  1  0  0  0  0
 11 36  1  0  0  0  0
 11 37  1  0  0  0  0
 12 22  1  0  0  0  0
 12 13  1  0  0  0  0
 13 14  1  0  0  0  0
 13 16  2  0  0  0  0
 14 15  1  0  0  0  0
 14 38  1  0  0  0  0
 14 39  1  0  0  0  0
 15 40  1  0  0  0  0
 16 17  1  0  0  0  0
 16 47  1  0  0  0  0
 17 22  2  0  0  0  0
 17 18  1  0  0  0  0
 18 19  2  0  0  0  0
 18 41  1  0  0  0  0
 19 20  1  0  0  0  0
 19 42  1  0  0  0  0
 20 21  2  0  0  0  0
 20 43  1  0  0  0  0
 21 22  1  0  0  0  0
 21 44  1  0  0  0  0
 23 24  2  0  0  0  0
 23 45  1  0  0  0  0
 24 46  1  0  0  0  0
M  CHG  1  16   1
M  END
> <s_m_source_file>
AV-unprocessed.smi

> <i_m_source_file_index>
484

> <i_lp_mmshare_version>
43012

> <i_f3d_flags>
0

> <s_epik_input>
W0NIM11bQ0gyXWMxW2NIXVtjSF1jKFtjSF1bY0hdMSlPW0NIMl1bQ0BIXShbT0hdKVtDSDJdbihjKG4yKVtDSDJdW09IXSljKGMyMylbY0hdW2NIXVtjSF1bY0hdMw==

> <s_epik_cmdline>
J2VwaWtfcHl0aG9uJywgJy1waCcsICc3LjAnLCAnLXRuJywgJzgnLCAnLW1hJywgJzIwMCcsICctbWV0YWxfYmluZGluZycsICctaW1hZScsICc8aW5maWxlLm1hZT4nLCAnLW9tYWUnLCAnPG91dGZpbGUubWFlPic=

> <r_lp_tautomer_probability>
1

> <r_epik_Ionization_Penalty>
1.43166

> <r_epik_Ionization_Penalty_Charging>
1.43081

> <r_epik_Ionization_Penalty_Neutral>
0.000858184

> <r_epik_State_Penalty>
1.51538

> <r_epik_Charging_Adjusted_Penalty>
2.94618

> <i_epik_Tot_Q>
1

> <i_epik_Tot_abs_Q>
1

> <r_epik_Metal_State_Penalty>
5.56039

> <b_epik_Metal_Only>
0

> <s_lp_Force_Field>
OPLS_2005

> <r_lp_Energy>
18.7475

> <b_lp_Chiralities_Consistent>
1

> <s_lp_Variant>
AV-unprocessed.smi:484-3

> <Gold.Version>
5.8.1

> <Gold.Id.Protein>
6NUR|6NUR_protein|mol2

> <Gold.PLP.Fitness>
51.5743

> <Gold.PLP.PLP>
-39.3587

> <Gold.PLP.part.hbond>
-4.6499

> <Gold.PLP.part.metal>
0.0000

> <Gold.PLP.part.buried>
-0.9321

> <Gold.PLP.part.nonpolar>
-34.3439

> <Gold.PLP.part.repulsive>
0.0840

> <Gold.PLP.ligand.clash>
0.0000

> <Gold.PLP.ligand.torsion>
0.6737

> <Gold.PLP.Chemscore.Hbond>
4.4620

> <Gold.PLP.Chemscore.CHOScore>
0.0000

> <Gold.PLP.Chemscore.Metal>
0.0000

> <Gold.Chemscore.Hbonds>
donor molecule, donor type, donor heavy atom, donor atom, acceptor molecule, acceptor atom, score
      L1  H    10    35       P1 10175  0.65
      L1  H    15    40       P1  7948  1.00
      L1  H    16    47       P1  7948  1.42

> <Gold.PLP.Chemscore.Internal.Correction>
0.1771

> <Gold.Rescore>
     Score         DG    S(hbond)    S(metal)    S(lipo)     H(rot)  DE(clash)    DE(int)     intcor
     16.70     -17.50       2.94        0.00      88.28       3.18       0.16       0.64       ----

> <Gold.Chemscore.Fitness>
16.7021

> <Gold.Chemscore.DG>
-17.4972

> <Gold.Chemscore.ZeroCoef>
-5.4800

> <Gold.Chemscore.Hbond>
2.9428

> <Gold.Chemscore.Metal>
0.0000

> <Gold.Chemscore.Lipo>
88.2825

> <Gold.Chemscore.Internal_Hbond>
0.0000

> <Gold.Chemscore.DEClash>
0.1574

> <Gold.Chemscore.DEInternal>
0.6376

> <Gold.Chemscore.Rot>
3.1801

> <Gold.Chemscore.Internal.Correction>
   9.000000E+99

> <Gold.Chemscore.Hbonds>
donor molecule, donor type, donor heavy atom, donor atom, acceptor molecule, acceptor atom, score
      L1  H    10    35       P1 10175  0.65
      L1  H    15    40       P1  7948  1.00
      L1  H    16    47       P1  7948  0.30

> <Gold.Chemscore.Hbond.Weighted>
-9.8291

> <Gold.Chemscore.Metal.Weighted>
-0.0000

> <Gold.Chemscore.Lipo.Weighted>
-10.3291

> <Gold.Chemscore.Internal_Hbond.Weighted>
0.0000

> <Gold.Chemscore.DEClash.Weighted>
0.1574

> <Gold.Chemscore.DEInternal.Weighted>
0.6376

> <Gold.Chemscore.Rot.Weighted>
8.1410

> <Gold.Chemscore.Internal.Correction.Weighted>
   9.000000E+99

> <Gold.Protein.RotatedTorsions>
[ 6907 6896 6895 6894 ] final   62.47 input  -60.11 | X-H torsion
[ 7974 7965 7964 7962 ] final   21.02 input  175.53 | X-H torsion
[ 8008 7997 7996 7995 ] final   37.36 input   59.86 | X-H torsion
[ 10167 10162 10161 10158 ] final -138.13 input  -65.29 | X-H torsion
[ 10718 10713 10712 10709 ] final  133.75 input   66.30 | X-H torsion
[ 10763 10752 10751 10750 ] final -104.83 input  -60.55 | X-H torsion
[ 11005 11000 10999 10996 ] final   75.51 input  -57.11 | X-H torsion

> <Gold.Protein.ActiveResidues>
 VAL166  LYS551  ARG553  GLY616  TRP617  ASP618  TYR619  PRO620  LYS621  CYS622 
 ASP623  PHE694  ASN695  SER759  ASP760  ASP761  ALA762  ILE779  LEU786  VAL792 
 PHE793  MET794  SER795  GLU796  ALA797  LYS798  CYS799  TRP800  GLU811  SER814 

> <Gold.Protein.RotatedAtoms>
  152.4175  134.6015  160.0001 H   0  0  0  0  0  0  0  0  0  0  0  0  # atno 6907 bound_to 6896
  151.6175  133.3336  159.3088 H   0  0  0  0  0  0  0  0  0  0  0  0  # atno 6908 bound_to 6896
  150.8063  134.7229  159.6713 H   0  0  0  0  0  0  0  0  0  0  0  0  # atno 6909 bound_to 6896
  146.2088  139.8087  142.8705 H   0  0  0  0  0  0  0  0  0  0  0  0  # atno 7974 bound_to 7965
  155.2024  140.3317  155.4341 H   0  0  0  0  0  0  0  0  0  0  0  0  # atno 8008 bound_to 7997
  156.2402  140.1891  156.7060 H   0  0  0  0  0  0  0  0  0  0  0  0  # atno 8009 bound_to 7997
  154.6132  140.0606  156.9507 H   0  0  0  0  0  0  0  0  0  0  0  0  # atno 8010 bound_to 7997
  139.8509  143.7200  152.2658 H   0  0  0  0  0  0  0  0  0  0  0  0  # atno 10167 bound_to 10162
  157.4742  131.1082  150.9765 H   0  0  0  0  0  0  0  0  0  0  0  0  # atno 10718 bound_to 10713
  154.7905  135.4772  154.0042 H   0  0  0  0  0  0  0  0  0  0  0  0  # atno 10763 bound_to 10752
  153.1624  135.6811  153.8731 H   0  0  0  0  0  0  0  0  0  0  0  0  # atno 10764 bound_to 10752
  153.8340  135.3188  155.3399 H   0  0  0  0  0  0  0  0  0  0  0  0  # atno 10765 bound_to 10752
  139.9340  134.7524  156.1281 H   0  0  0  0  0  0  0  0  0  0  0  0  # atno 11005 bound_to 11000
  145.3219  141.0246  143.3495 LP  0  0  0  0  0  0  0  0  0  0  0  0  # atno 17320 bound_to 7965
  144.8861  139.4838  143.6700 LP  0  0  0  0  0  0  0  0  0  0  0  0  # atno 17321 bound_to 7965
  139.7466  144.7545  151.0570 LP  0  0  0  0  0  0  0  0  0  0  0  0  # atno 17342 bound_to 10162
  140.7787  143.4909  150.9895 LP  0  0  0  0  0  0  0  0  0  0  0  0  # atno 17343 bound_to 10162
  157.0519  130.5791  149.5372 LP  0  0  0  0  0  0  0  0  0  0  0  0  # atno 17370 bound_to 10713
  156.0088  130.5178  150.7920 LP  0  0  0  0  0  0  0  0  0  0  0  0  # atno 17371 bound_to 10713
  141.0944  133.6701  156.2613 LP  0  0  0  0  0  0  0  0  0  0  0  0  # atno 17394 bound_to 11000
  140.6125  134.5444  157.5535 LP  0  0  0  0  0  0  0  0  0  0  0  0  # atno 17395 bound_to 11000

$$$$
