AV-unprocessed.smi:534|AV-procd|sdf|2856|dock5
  -GOLD-   2262023343D 1   1.00000     0.00000
 Structure written by MMmdl.
 40 41  0  0  0  0  0  0  0  0  1 V2000
  152.5172  142.4803  159.8204 C   0  0  0  0  0  0  0  0  0  0  0  0
  151.1638  142.7717  159.5218 O   0  0  0  0  0  0  0  0  0  0  0  0
  151.0205  143.9380  158.7276 C   0  0  0  0  0  0  0  0  0  0  0  0
  151.6199  143.6859  157.3387 C   0  0  0  0  0  0  0  0  0  0  0  0
  150.6814  142.9940  156.4760 N   0  0  0  0  0  0  0  0  0  0  0  0
  150.6928  141.7144  155.9356 C   0  0  0  0  0  0  0  0  0  0  0  0
  151.6455  140.8049  156.1565 N   0  0  0  0  0  0  0  0  0  0  0  0
  151.1912  139.7065  155.4395 C   0  0  0  0  0  0  0  0  0  0  0  0
  150.0090  139.9808  154.8301 C   0  0  0  0  0  0  0  0  0  0  0  0
  149.2850  138.9893  154.0261 C   0  0  0  0  0  0  0  0  0  0  0  0
  148.2082  139.2172  153.4789 O   0  0  0  0  0  0  0  0  0  0  0  0
  149.9229  137.7956  153.9565 N   0  0  0  0  0  0  0  0  0  0  0  0
  151.1116  137.4525  154.5413 C   0  0  0  0  0  0  0  0  0  0  0  0
  151.5638  136.3173  154.3936 O   0  0  0  0  0  0  0  0  0  0  0  0
  151.7568  138.4086  155.2840 N   0  0  0  0  0  0  0  0  0  0  0  0
  153.0275  138.0944  155.9399 C   0  0  0  0  0  0  0  0  0  0  0  0
  149.6751  141.2973  155.1427 N   0  0  0  0  0  0  0  0  0  0  0  0
  148.4885  142.0458  154.7409 C   0  0  0  0  0  0  0  0  0  0  0  0
  147.1978  141.3685  155.2244 C   0  0  0  0  0  0  0  0  0  0  0  0
  146.1459  141.6455  154.3134 O   0  0  0  0  0  0  0  0  0  0  0  0
  145.9568  143.0323  154.0992 C   0  0  0  0  0  0  0  0  0  0  0  0
  149.4669  137.0752  153.4158 H   0  0  0  0  0  0  0  0  0  0  0  0
  152.5724  141.5716  160.4196 H   0  0  0  0  0  0  0  0  0  0  0  0
  152.9761  143.2883  160.3919 H   0  0  0  0  0  0  0  0  0  0  0  0
  153.0970  142.3201  158.9105 H   0  0  0  0  0  0  0  0  0  0  0  0
  149.9705  144.2243  158.6417 H   0  0  0  0  0  0  0  0  0  0  0  0
  151.5458  144.7648  159.2075 H   0  0  0  0  0  0  0  0  0  0  0  0
  151.8705  144.6365  156.8681 H   0  0  0  0  0  0  0  0  0  0  0  0
  152.5452  143.1142  157.4161 H   0  0  0  0  0  0  0  0  0  0  0  0
  149.8036  143.4810  156.3675 H   0  0  0  0  0  0  0  0  0  0  0  0
  153.7367  137.6651  155.2306 H   0  0  0  0  0  0  0  0  0  0  0  0
  152.8698  137.3739  156.7436 H   0  0  0  0  0  0  0  0  0  0  0  0
  153.5019  138.9748  156.3738 H   0  0  0  0  0  0  0  0  0  0  0  0
  148.5502  143.0598  155.1365 H   0  0  0  0  0  0  0  0  0  0  0  0
  148.4821  142.1540  153.6570 H   0  0  0  0  0  0  0  0  0  0  0  0
  147.3494  140.2911  155.3013 H   0  0  0  0  0  0  0  0  0  0  0  0
  146.9372  141.7334  156.2192 H   0  0  0  0  0  0  0  0  0  0  0  0
  145.1342  143.1842  153.4006 H   0  0  0  0  0  0  0  0  0  0  0  0
  146.8497  143.4899  153.6717 H   0  0  0  0  0  0  0  0  0  0  0  0
  145.7096  143.5457  155.0293 H   0  0  0  0  0  0  0  0  0  0  0  0
  1  2  1  0  0  0  0
  1 23  1  0  0  0  0
  1 24  1  0  0  0  0
  1 25  1  0  0  0  0
  2  3  1  0  0  0  0
  3  4  1  0  0  0  0
  3 26  1  0  0  0  0
  3 27  1  0  0  0  0
  4  5  1  0  0  0  0
  4 28  1  0  0  0  0
  4 29  1  0  0  0  0
  5  6  1  0  0  0  0
  5 30  1  0  0  0  0
  6 17  1  0  0  0  0
  6  7  2  0  0  0  0
  7  8  1  0  0  0  0
  8 15  1  0  0  0  0
  8  9  2  0  0  0  0
  9 10  1  0  0  0  0
  9 17  1  0  0  0  0
 10 11  2  0  0  0  0
 10 12  1  0  0  0  0
 12 22  1  0  0  0  0
 12 13  1  0  0  0  0
 13 14  2  0  0  0  0
 13 15  1  0  0  0  0
 15 16  1  0  0  0  0
 16 31  1  0  0  0  0
 16 32  1  0  0  0  0
 16 33  1  0  0  0  0
 17 18  1  0  0  0  0
 18 19  1  0  0  0  0
 18 34  1  0  0  0  0
 18 35  1  0  0  0  0
 19 20  1  0  0  0  0
 19 36  1  0  0  0  0
 19 37  1  0  0  0  0
 20 21  1  0  0  0  0
 21 38  1  0  0  0  0
 21 39  1  0  0  0  0
 21 40  1  0  0  0  0
M  END
> <s_m_source_file>
AV-unprocessed.smi

> <i_m_source_file_index>
534

> <i_lp_mmshare_version>
43012

> <i_f3d_flags>
0

> <s_epik_input>
W0NIM11PW0NIMl1bQ0gyXVtOSF1jKG4xKW4oW0NIMl1bQ0gyXU9bQ0gzXSljKGMxMiljKD1PKVtuSF1jKD1PKW4yW0NIM10=

> <s_epik_cmdline>
J2VwaWtfcHl0aG9uJywgJy1waCcsICc3LjAnLCAnLXRuJywgJzgnLCAnLW1hJywgJzIwMCcsICctbWV0YWxfYmluZGluZycsICctaW1hZScsICc8aW5maWxlLm1hZT4nLCAnLW9tYWUnLCAnPG91dGZpbGUubWFlPic=

> <r_lp_tautomer_probability>
1

> <r_epik_Ionization_Penalty>
6.5127e-05

> <r_epik_Ionization_Penalty_Charging>
2.86033e-05

> <r_epik_Ionization_Penalty_Neutral>
3.65237e-05

> <r_epik_State_Penalty>
-0

> <r_epik_Charging_Adjusted_Penalty>
2.86033e-05

> <i_epik_Tot_Q>
0

> <i_epik_Tot_abs_Q>
0

> <r_epik_Metal_State_Penalty>
0.0266758

> <b_epik_Metal_Only>
0

> <s_lp_Force_Field>
OPLS_2005

> <r_lp_Energy>
20.7104

> <b_lp_Chiralities_Consistent>
1

> <s_lp_Variant>
AV-unprocessed.smi:534-1

> <Gold.Version>
5.8.1

> <Gold.Id.Protein>
6NUR|6NUR_protein|mol2

> <Gold.PLP.Fitness>
48.0882

> <Gold.PLP.PLP>
-39.7653

> <Gold.PLP.part.hbond>
-3.4292

> <Gold.PLP.part.metal>
0.0000

> <Gold.PLP.part.buried>
-3.0641

> <Gold.PLP.part.nonpolar>
-34.9966

> <Gold.PLP.part.repulsive>
2.1957

> <Gold.PLP.ligand.clash>
0.0000

> <Gold.PLP.ligand.torsion>
0.3536

> <Gold.PLP.Chemscore.Hbond>
3.0000

> <Gold.PLP.Chemscore.CHOScore>
0.0000

> <Gold.PLP.Chemscore.Metal>
0.0000

> <Gold.Chemscore.Hbonds>
donor molecule, donor type, donor heavy atom, donor atom, acceptor molecule, acceptor atom, score
      L1  H     5    30       P1  8028  0.99
      L1  H    12    22       P1  7948  1.00
      P1  H 10752 10763       L1    14  1.00

> <Gold.PLP.Chemscore.Internal.Correction>
0.0301

> <Gold.Rescore>
     Score         DG    S(hbond)    S(metal)    S(lipo)     H(rot)  DE(clash)    DE(int)     intcor
     13.36     -16.34       2.87        0.00      64.34       2.45       2.54       0.44       ----

> <Gold.Chemscore.Fitness>
13.3569

> <Gold.Chemscore.DG>
-16.3428

> <Gold.Chemscore.ZeroCoef>
-5.4800

> <Gold.Chemscore.Hbond>
2.8739

> <Gold.Chemscore.Metal>
0.0000

> <Gold.Chemscore.Lipo>
64.3417

> <Gold.Chemscore.Internal_Hbond>
0.0000

> <Gold.Chemscore.DEClash>
2.5425

> <Gold.Chemscore.DEInternal>
0.4434

> <Gold.Chemscore.Rot>
2.4468

> <Gold.Chemscore.Internal.Correction>
   9.000000E+99

> <Gold.Chemscore.Hbonds>
donor molecule, donor type, donor heavy atom, donor atom, acceptor molecule, acceptor atom, score
      L1  H     5    30       P1  8028  0.94
      L1  H    12    22       P1  7948  0.88
      P1  H 10752 10763       L1    14  0.93

> <Gold.Chemscore.Hbond.Weighted>
-9.5987

> <Gold.Chemscore.Metal.Weighted>
-0.0000

> <Gold.Chemscore.Lipo.Weighted>
-7.5280

> <Gold.Chemscore.Internal_Hbond.Weighted>
0.0000

> <Gold.Chemscore.DEClash.Weighted>
2.5425

> <Gold.Chemscore.DEInternal.Weighted>
0.4434

> <Gold.Chemscore.Rot.Weighted>
6.2638

> <Gold.Chemscore.Internal.Correction.Weighted>
   9.000000E+99

> <Gold.Protein.RotatedTorsions>
[ 6907 6896 6895 6894 ] final   65.37 input  -60.11 | X-H torsion
[ 7974 7965 7964 7962 ] final  -19.40 input  175.53 | X-H torsion
[ 8008 7997 7996 7995 ] final   55.59 input   59.86 | X-H torsion
[ 10167 10162 10161 10158 ] final   78.95 input  -65.29 | X-H torsion
[ 10718 10713 10712 10709 ] final -157.20 input   66.30 | X-H torsion
[ 10763 10752 10751 10750 ] final   66.40 input  -60.55 | X-H torsion
[ 11005 11000 10999 10996 ] final   48.81 input  -57.11 | X-H torsion

> <Gold.Protein.ActiveResidues>
 VAL166  LYS551  ARG553  GLY616  TRP617  ASP618  TYR619  PRO620  LYS621  CYS622 
 ASP623  PHE694  ASN695  SER759  ASP760  ASP761  ALA762  ILE779  LEU786  VAL792 
 PHE793  MET794  SER795  GLU796  ALA797  LYS798  CYS799  TRP800  GLU811  SER814 

> <Gold.Protein.RotatedAtoms>
  152.4403  134.5605  159.9892 H   0  0  0  0  0  0  0  0  0  0  0  0  # atno 6907 bound_to 6896
  151.5704  133.3385  159.2996 H   0  0  0  0  0  0  0  0  0  0  0  0  # atno 6908 bound_to 6896
  150.8308  134.7593  159.6915 H   0  0  0  0  0  0  0  0  0  0  0  0  # atno 6909 bound_to 6896
  146.1843  140.4057  142.8482 H   0  0  0  0  0  0  0  0  0  0  0  0  # atno 7974 bound_to 7965
  155.5036  140.3475  155.4375 H   0  0  0  0  0  0  0  0  0  0  0  0  # atno 8008 bound_to 7997
  156.0897  140.1407  156.9635 H   0  0  0  0  0  0  0  0  0  0  0  0  # atno 8009 bound_to 7997
  154.4627  140.0929  156.6915 H   0  0  0  0  0  0  0  0  0  0  0  0  # atno 8010 bound_to 7997
  139.9655  144.5931  150.8033 H   0  0  0  0  0  0  0  0  0  0  0  0  # atno 10167 bound_to 10162
  156.5371  130.8546  151.2736 H   0  0  0  0  0  0  0  0  0  0  0  0  # atno 10718 bound_to 10713
  153.0138  135.5322  154.6818 H   0  0  0  0  0  0  0  0  0  0  0  0  # atno 10763 bound_to 10752
  154.5976  135.2865  155.0572 H   0  0  0  0  0  0  0  0  0  0  0  0  # atno 10764 bound_to 10752
  154.1641  135.6543  153.5045 H   0  0  0  0  0  0  0  0  0  0  0  0  # atno 10765 bound_to 10752
  140.1158  134.4894  155.8639 H   0  0  0  0  0  0  0  0  0  0  0  0  # atno 11005 bound_to 11000
  144.8369  140.6797  143.6254 LP  0  0  0  0  0  0  0  0  0  0  0  0  # atno 17320 bound_to 7965
  145.3985  139.1602  143.4190 LP  0  0  0  0  0  0  0  0  0  0  0  0  # atno 17321 bound_to 7965
  140.7539  143.3017  151.3063 LP  0  0  0  0  0  0  0  0  0  0  0  0  # atno 17342 bound_to 10162
  139.6521  144.0343  152.2634 LP  0  0  0  0  0  0  0  0  0  0  0  0  # atno 17343 bound_to 10162
  157.7412  130.9865  150.2428 LP  0  0  0  0  0  0  0  0  0  0  0  0  # atno 17370 bound_to 10713
  156.3006  130.3758  149.7754 LP  0  0  0  0  0  0  0  0  0  0  0  0  # atno 17371 bound_to 10713
  141.2141  133.6743  156.6793 LP  0  0  0  0  0  0  0  0  0  0  0  0  # atno 17394 bound_to 11000
  140.3030  134.8148  157.4113 LP  0  0  0  0  0  0  0  0  0  0  0  0  # atno 17395 bound_to 11000

$$$$
