AV-unprocessed.smi:1533|AV-procd|sdf|6164|dock8
  -GOLD-   22720 6313D 1   1.00000     0.00000
 Structure written by MMmdl.
 37 39  0  0  0  0  0  0  0  0  1 V2000
  147.8901  145.4372  161.3955 C   0  0  0  0  0  0  0  0  0  0  0  0
  147.4029  144.2859  160.5835 C   0  0  0  0  0  0  0  0  0  0  0  0
  146.8839  143.2059  161.1554 N   0  0  0  0  0  0  0  0  0  0  0  0
  146.5537  142.3892  160.0643 O   0  0  0  0  0  0  0  0  0  0  0  0
  146.9355  143.0757  158.9604 C   0  0  0  0  0  0  0  0  0  0  0  0
  146.6725  142.4824  157.6171 C   0  0  0  0  0  0  0  0  0  0  0  0
  147.8743  141.6871  157.0828 C   0  0  0  0  0  0  0  0  0  0  0  0
  149.1187  142.4353  157.2190 N   0  0  0  0  0  0  0  0  0  0  0  0
  150.2308  141.9814  157.8170 C   0  0  0  0  0  0  0  0  0  0  0  0
  150.3132  140.8570  158.3131 O   0  0  0  0  0  0  0  0  0  0  0  0
  151.4324  142.9433  157.8259 C   0  0  2  0  0  0  0  0  0  0  0  0
  152.5668  142.5539  158.8058 C   0  0  0  0  0  0  0  0  0  0  0  0
  152.7726  143.8415  159.6258 C   0  0  2  0  0  0  0  0  0  0  0  0
  151.5906  144.0285  160.5955 C   0  0  0  0  0  0  0  0  0  0  0  0
  150.4512  144.4707  159.6594 C   0  0  0  0  0  0  0  0  0  0  0  0
  151.1092  144.3969  158.2636 C   0  0  1  0  0  0  0  0  0  0  0  0
  152.5052  144.9226  158.5846 C   0  0  0  0  0  0  0  0  0  0  0  0
  147.4550  144.2725  159.2233 N   0  0  0  0  0  0  0  0  0  0  0  0
  147.6998  145.2751  162.4571 H   0  0  0  0  0  0  0  0  0  0  0  0
  147.3839  146.3535  161.0912 H   0  0  0  0  0  0  0  0  0  0  0  0
  148.9627  145.5703  161.2535 H   0  0  0  0  0  0  0  0  0  0  0  0
  145.7926  141.8417  157.6889 H   0  0  0  0  0  0  0  0  0  0  0  0
  146.4172  143.2874  156.9269 H   0  0  0  0  0  0  0  0  0  0  0  0
  147.9795  140.7556  157.6400 H   0  0  0  0  0  0  0  0  0  0  0  0
  147.7156  141.4085  156.0394 H   0  0  0  0  0  0  0  0  0  0  0  0
  149.1362  143.3675  156.8308 H   0  0  0  0  0  0  0  0  0  0  0  0
  151.8512  142.9717  156.8180 H   0  0  0  0  0  0  0  0  0  0  0  0
  152.3395  141.6985  159.4436 H   0  0  0  0  0  0  0  0  0  0  0  0
  153.4730  142.3077  158.2509 H   0  0  0  0  0  0  0  0  0  0  0  0
  153.7478  143.8983  160.1103 H   0  0  0  0  0  0  0  0  0  0  0  0
  151.3520  143.1109  161.1347 H   0  0  0  0  0  0  0  0  0  0  0  0
  151.8051  144.8041  161.3317 H   0  0  0  0  0  0  0  0  0  0  0  0
  149.5549  143.8599  159.7607 H   0  0  0  0  0  0  0  0  0  0  0  0
  150.1611  145.4981  159.8837 H   0  0  0  0  0  0  0  0  0  0  0  0
  150.5807  144.9711  157.5021 H   0  0  0  0  0  0  0  0  0  0  0  0
  152.5062  145.9323  158.9995 H   0  0  0  0  0  0  0  0  0  0  0  0
  153.1906  144.8862  157.7357 H   0  0  0  0  0  0  0  0  0  0  0  0
  1  2  1  0  0  0  0
  1 19  1  0  0  0  0
  1 20  1  0  0  0  0
  1 21  1  0  0  0  0
  2 18  1  0  0  0  0
  2  3  2  0  0  0  0
  3  4  1  0  0  0  0
  4  5  1  0  0  0  0
  5  6  1  0  0  0  0
  5 18  2  0  0  0  0
  6  7  1  0  0  0  0
  6 22  1  0  0  0  0
  6 23  1  0  0  0  0
  7  8  1  0  0  0  0
  7 24  1  0  0  0  0
  7 25  1  0  0  0  0
  8  9  1  0  0  0  0
  8 26  1  0  0  0  0
  9 10  2  0  0  0  0
  9 11  1  0  0  0  0
 11 16  1  0  0  0  0
 11 12  1  0  0  0  0
 11 27  1  0  0  0  0
 12 13  1  0  0  0  0
 12 28  1  0  0  0  0
 12 29  1  0  0  0  0
 13 17  1  0  0  0  0
 13 14  1  0  0  0  0
 13 30  1  0  0  0  0
 14 15  1  0  0  0  0
 14 31  1  0  0  0  0
 14 32  1  0  0  0  0
 15 16  1  0  0  0  0
 15 33  1  0  0  0  0
 15 34  1  0  0  0  0
 16 17  1  0  0  0  0
 16 35  1  0  0  0  0
 17 36  1  0  0  0  0
 17 37  1  0  0  0  0
M  END
> <s_m_source_file>
AV-unprocessed.smi

> <i_m_source_file_index>
1533

> <i_lp_mmshare_version>
43012

> <i_f3d_flags>
0

> <s_epik_input>
W0NIM11jMW5vYyhuMSlbQ0gyXVtDSDJdW05IXUMoPU8pW0NASF0oW0NIMl1bQ0BASF0yMylbQ0BASF0oW0NIMl0zKVtDSDJdW0NIMl0y

> <s_epik_cmdline>
J2VwaWtfcHl0aG9uJywgJy1waCcsICc3LjAnLCAnLXRuJywgJzgnLCAnLW1hJywgJzIwMCcsICctbWV0YWxfYmluZGluZycsICctaW1hZScsICc8aW5maWxlLm1hZT4nLCAnLW9tYWUnLCAnPG91dGZpbGUubWFlPic=

> <r_lp_tautomer_probability>
1

> <r_epik_Ionization_Penalty>
1.90116e-08

> <r_epik_Ionization_Penalty_Charging>
0

> <r_epik_Ionization_Penalty_Neutral>
1.90116e-08

> <r_epik_State_Penalty>
-0

> <r_epik_Charging_Adjusted_Penalty>
0

> <i_epik_Tot_Q>
0

> <i_epik_Tot_abs_Q>
0

> <r_epik_Metal_State_Penalty>
-0

> <b_epik_Metal_Only>
0

> <s_lp_Force_Field>
OPLS_2005

> <r_lp_Energy>
42.9891

> <b_lp_Chiralities_Consistent>
1

> <s_lp_Variant>
AV-unprocessed.smi:1533-3

> <Gold.Version>
5.8.1

> <Gold.Id.Protein>
6NUR|6NUR_protein|mol2

> <Gold.PLP.Fitness>
42.9838

> <Gold.PLP.PLP>
-36.7189

> <Gold.PLP.part.hbond>
-4.2532

> <Gold.PLP.part.metal>
0.0000

> <Gold.PLP.part.buried>
-7.1783

> <Gold.PLP.part.nonpolar>
-29.5086

> <Gold.PLP.part.repulsive>
3.5362

> <Gold.PLP.ligand.clash>
0.0000

> <Gold.PLP.ligand.torsion>
0.7677

> <Gold.PLP.Chemscore.Hbond>
2.5950

> <Gold.PLP.Chemscore.CHOScore>
0.0000

> <Gold.PLP.Chemscore.Metal>
0.0000

> <Gold.Chemscore.Hbonds>
donor molecule, donor type, donor heavy atom, donor atom, acceptor molecule, acceptor atom, score
      L1  H     8    26       P1  8028  1.00
      P1  H  6933  6944       L1     3  0.60
      P1  H  6934  6946       L1     4  1.00

> <Gold.PLP.Chemscore.Internal.Correction>
0.0153

> <Gold.Rescore>
     Score         DG    S(hbond)    S(metal)    S(lipo)     H(rot)  DE(clash)    DE(int)     intcor
     15.26     -17.53       1.83        0.00      91.17       1.85       1.70       0.57       ----

> <Gold.Chemscore.Fitness>
15.2584

> <Gold.Chemscore.DG>
-17.5343

> <Gold.Chemscore.ZeroCoef>
-5.4800

> <Gold.Chemscore.Hbond>
1.8327

> <Gold.Chemscore.Metal>
0.0000

> <Gold.Chemscore.Lipo>
91.1651

> <Gold.Chemscore.Internal_Hbond>
0.0000

> <Gold.Chemscore.DEClash>
1.7034

> <Gold.Chemscore.DEInternal>
0.5725

> <Gold.Chemscore.Rot>
1.8490

> <Gold.Chemscore.Internal.Correction>
   9.000000E+99

> <Gold.Chemscore.Hbonds>
donor molecule, donor type, donor heavy atom, donor atom, acceptor molecule, acceptor atom, score
      L1  H     8    26       P1  8028  0.90
      P1  H  6933  6944       L1     3  0.01
      P1  H  6934  6946       L1     4  0.25

> <Gold.Chemscore.Hbond.Weighted>
-6.1214

> <Gold.Chemscore.Metal.Weighted>
-0.0000

> <Gold.Chemscore.Lipo.Weighted>
-10.6663

> <Gold.Chemscore.Internal_Hbond.Weighted>
0.0000

> <Gold.Chemscore.DEClash.Weighted>
1.7034

> <Gold.Chemscore.DEInternal.Weighted>
0.5725

> <Gold.Chemscore.Rot.Weighted>
4.7334

> <Gold.Chemscore.Internal.Correction.Weighted>
   9.000000E+99

> <Gold.Protein.RotatedTorsions>
[ 6907 6896 6895 6894 ] final   15.89 input  -60.11 | X-H torsion
[ 7974 7965 7964 7962 ] final  147.93 input  175.53 | X-H torsion
[ 8008 7997 7996 7995 ] final   66.33 input   59.86 | X-H torsion
[ 10167 10162 10161 10158 ] final   -3.99 input  -65.29 | X-H torsion
[ 10718 10713 10712 10709 ] final -158.99 input   66.30 | X-H torsion
[ 10763 10752 10751 10750 ] final -146.97 input  -60.55 | X-H torsion
[ 11005 11000 10999 10996 ] final -176.82 input  -57.11 | X-H torsion

> <Gold.Protein.ActiveResidues>
 VAL166  LYS551  ARG553  GLY616  TRP617  ASP618  TYR619  PRO620  LYS621  CYS622 
 ASP623  PHE694  ASN695  SER759  ASP760  ASP761  ALA762  ILE779  LEU786  VAL792 
 PHE793  MET794  SER795  GLU796  ALA797  LYS798  CYS799  TRP800  GLU811  SER814 

> <Gold.Protein.RotatedAtoms>
  151.8253  135.0639  160.0429 H   0  0  0  0  0  0  0  0  0  0  0  0  # atno 6907 bound_to 6896
  152.2921  133.5567  159.5572 H   0  0  0  0  0  0  0  0  0  0  0  0  # atno 6908 bound_to 6896
  150.7235  134.0330  159.3782 H   0  0  0  0  0  0  0  0  0  0  0  0  # atno 6909 bound_to 6896
  144.8553  139.6090  143.5955 H   0  0  0  0  0  0  0  0  0  0  0  0  # atno 7974 bound_to 7965
  155.6757  140.3497  155.4835 H   0  0  0  0  0  0  0  0  0  0  0  0  # atno 8008 bound_to 7997
  155.9650  140.1144  157.0885 H   0  0  0  0  0  0  0  0  0  0  0  0  # atno 8009 bound_to 7997
  154.4152  140.1168  156.5216 H   0  0  0  0  0  0  0  0  0  0  0  0  # atno 8010 bound_to 7997
  140.6911  143.6475  150.8380 H   0  0  0  0  0  0  0  0  0  0  0  0  # atno 10167 bound_to 10162
  156.5618  130.8650  151.2812 H   0  0  0  0  0  0  0  0  0  0  0  0  # atno 10718 bound_to 10713
  154.8310  135.3372  154.6744 H   0  0  0  0  0  0  0  0  0  0  0  0  # atno 10763 bound_to 10752
  153.7364  135.6948  153.4981 H   0  0  0  0  0  0  0  0  0  0  0  0  # atno 10764 bound_to 10752
  153.2275  135.4428  155.0510 H   0  0  0  0  0  0  0  0  0  0  0  0  # atno 10765 bound_to 10752
  140.4478  134.6371  157.4787 H   0  0  0  0  0  0  0  0  0  0  0  0  # atno 11005 bound_to 11000
  146.2818  139.6897  142.9224 LP  0  0  0  0  0  0  0  0  0  0  0  0  # atno 17320 bound_to 7965
  145.4419  141.0423  143.2853 LP  0  0  0  0  0  0  0  0  0  0  0  0  # atno 17321 bound_to 7965
  140.0188  143.5564  152.2809 LP  0  0  0  0  0  0  0  0  0  0  0  0  # atno 17342 bound_to 10162
  139.6315  144.7645  151.2526 LP  0  0  0  0  0  0  0  0  0  0  0  0  # atno 17343 bound_to 10162
  157.7367  130.9783  150.2150 LP  0  0  0  0  0  0  0  0  0  0  0  0  # atno 17370 bound_to 10713
  156.2792  130.3731  149.7952 LP  0  0  0  0  0  0  0  0  0  0  0  0  # atno 17371 bound_to 10713
  140.0026  134.6812  155.9505 LP  0  0  0  0  0  0  0  0  0  0  0  0  # atno 17394 bound_to 11000
  141.1677  133.6537  156.4539 LP  0  0  0  0  0  0  0  0  0  0  0  0  # atno 17395 bound_to 11000

$$$$
