AV-unprocessed.smi:2078|AV-procd|sdf|8472|dock9
  -GOLD-   2272011173D 1   1.00000     0.00000
 Structure written by MMmdl.
 41 42  0  0  0  0  0  0  0  0  3 V2000
  150.9889  141.4364  157.7723 C   0  0  0  0  0  0  0  0  0  0  0  0
  150.6043  140.8710  156.4478 C   0  0  0  0  0  0  0  0  0  0  0  0
  149.4070  140.7603  155.7987 C   0  0  0  0  0  0  0  0  0  0  0  0
  149.7592  140.1193  154.5811 C   0  0  0  0  0  0  0  0  0  0  0  0
  148.7680  139.8170  153.6106 N   0  0  0  0  0  0  0  0  0  0  0  0
  147.5229  139.3425  153.7957 C   0  0  0  0  0  0  0  0  0  0  0  0
  147.1133  139.0868  154.9345 O   0  0  0  0  0  0  0  0  0  0  0  0
  146.8481  139.1958  152.6219 N   0  5  0  0  0  0  0  0  0  0  0  0
  146.0164  138.0449  152.2751 C   0  0  0  0  0  0  0  0  0  0  0  0
  146.1494  136.9455  153.3479 C   0  0  0  0  0  0  0  0  0  0  0  0
  146.3819  135.6118  152.7344 N   0  3  2  0  0  0  0  0  0  0  0  0
  145.4642  135.3120  151.6010 C   0  0  0  0  0  0  0  0  0  0  0  0
  145.8703  134.0097  150.8939 C   0  0  0  0  0  0  0  0  0  0  0  0
  145.9233  132.8391  151.8860 C   0  0  0  0  0  0  0  0  0  0  0  0
  146.8191  133.1690  153.0949 C   0  0  1  0  0  0  0  0  0  0  0  0
  148.3187  133.1384  152.7507 C   0  0  0  0  0  0  0  0  0  0  0  0
  146.3974  134.5093  153.7323 C   0  0  0  0  0  0  0  0  0  0  0  0
  151.0565  139.8639  154.4945 N   0  0  0  0  0  0  0  0  0  0  0  0
  151.6042  140.3434  155.6904 O   0  0  0  0  0  0  0  0  0  0  0  0
  150.3539  142.2839  158.0308 H   0  0  0  0  0  0  0  0  0  0  0  0
  152.0234  141.7804  157.7654 H   0  0  0  0  0  0  0  0  0  0  0  0
  150.8863  140.6856  158.5558 H   0  0  0  0  0  0  0  0  0  0  0  0
  148.4357  141.0846  156.1418 H   0  0  0  0  0  0  0  0  0  0  0  0
  149.0293  139.9950  152.6522 H   0  0  0  0  0  0  0  0  0  0  0  0
  144.9653  138.3149  152.1642 H   0  0  0  0  0  0  0  0  0  0  0  0
  146.3088  137.6279  151.3112 H   0  0  0  0  0  0  0  0  0  0  0  0
  146.9843  137.2070  154.0000 H   0  0  0  0  0  0  0  0  0  0  0  0
  145.2679  136.9127  153.9906 H   0  0  0  0  0  0  0  0  0  0  0  0
  144.4405  135.2356  151.9708 H   0  0  0  0  0  0  0  0  0  0  0  0
  145.4775  136.1301  150.8797 H   0  0  0  0  0  0  0  0  0  0  0  0
  145.1633  133.7859  150.0946 H   0  0  0  0  0  0  0  0  0  0  0  0
  146.8414  134.1383  150.4148 H   0  0  0  0  0  0  0  0  0  0  0  0
  144.9127  132.6258  152.2369 H   0  0  0  0  0  0  0  0  0  0  0  0
  146.2699  131.9336  151.3867 H   0  0  0  0  0  0  0  0  0  0  0  0
  146.6595  132.3883  153.8396 H   0  0  0  0  0  0  0  0  0  0  0  0
  148.5882  133.9128  152.0323 H   0  0  0  0  0  0  0  0  0  0  0  0
  148.6038  132.1765  152.3240 H   0  0  0  0  0  0  0  0  0  0  0  0
  148.9265  133.2936  153.6425 H   0  0  0  0  0  0  0  0  0  0  0  0
  147.0816  134.7537  154.5466 H   0  0  0  0  0  0  0  0  0  0  0  0
  145.4044  134.4169  154.1753 H   0  0  0  0  0  0  0  0  0  0  0  0
  147.3160  135.6517  152.3524 H   0  0  0  0  0  0  0  0  0  0  0  0
  1  2  1  0  0  0  0
  1 20  1  0  0  0  0
  1 21  1  0  0  0  0
  1 22  1  0  0  0  0
  2 19  1  0  0  0  0
  2  3  2  0  0  0  0
  3  4  1  0  0  0  0
  3 23  1  0  0  0  0
  4  5  1  0  0  0  0
  4 18  2  0  0  0  0
  5  6  1  0  0  0  0
  5 24  1  0  0  0  0
  6  7  2  0  0  0  0
  6  8  1  0  0  0  0
  8  9  1  0  0  0  0
  9 10  1  0  0  0  0
  9 25  1  0  0  0  0
  9 26  1  0  0  0  0
 10 11  1  0  0  0  0
 10 27  1  0  0  0  0
 10 28  1  0  0  0  0
 11 17  1  0  0  0  0
 11 12  1  0  0  0  0
 11 41  1  0  0  0  0
 12 13  1  0  0  0  0
 12 29  1  0  0  0  0
 12 30  1  0  0  0  0
 13 14  1  0  0  0  0
 13 31  1  0  0  0  0
 13 32  1  0  0  0  0
 14 15  1  0  0  0  0
 14 33  1  0  0  0  0
 14 34  1  0  0  0  0
 15 16  1  0  0  0  0
 15 17  1  0  0  0  0
 15 35  1  0  0  0  0
 16 36  1  0  0  0  0
 16 37  1  0  0  0  0
 16 38  1  0  0  0  0
 17 39  1  0  0  0  0
 17 40  1  0  0  0  0
 18 19  1  0  0  0  0
M  CHG  1   8  -1
M  CHG  1  11   1
M  END
> <s_m_source_file>
AV-unprocessed.smi

> <i_m_source_file_index>
2078

> <i_lp_mmshare_version>
43012

> <i_f3d_flags>
0

> <s_epik_input>
W0NIM11jMVtjSF1jKG5vMSlbTkhdQyg9TylbTkhdW0NIMl1bQ0gyXU4yW0NIMl1bQ0gyXVtDSDJdW0NAQEhdKFtDSDNdKVtDSDJdMg==

> <s_epik_cmdline>
J2VwaWtfcHl0aG9uJywgJy1waCcsICc3LjAnLCAnLXRuJywgJzgnLCAnLW1hJywgJzIwMCcsICctbWV0YWxfYmluZGluZycsICctaW1hZScsICc8aW5maWxlLm1hZT4nLCAnLW9tYWUnLCAnPG91dGZpbGUubWFlPic=

> <r_epik_Ionization_Penalty>
6.76934

> <r_epik_Ionization_Penalty_Charging>
6.76934

> <r_epik_Ionization_Penalty_Neutral>
5.77849e-06

> <r_epik_State_Penalty>
6.79457

> <r_epik_Charging_Adjusted_Penalty>
13.5639

> <i_epik_Tot_Q>
0

> <i_epik_Tot_abs_Q>
2

> <r_epik_Metal_State_Penalty>
2.72837

> <b_epik_Metal_Only>
1

> <s_lp_Force_Field>
OPLS_2005

> <r_lp_Energy>
14.163

> <b_lp_Chiralities_Consistent>
1

> <s_lp_Variant>
AV-unprocessed.smi:2078-10

> <Gold.Version>
5.8.1

> <Gold.Id.Protein>
6NUR|6NUR_protein|mol2

> <Gold.PLP.Fitness>
39.5266

> <Gold.PLP.PLP>
-29.6754

> <Gold.PLP.part.hbond>
-3.1576

> <Gold.PLP.part.metal>
0.0000

> <Gold.PLP.part.buried>
-4.6427

> <Gold.PLP.part.nonpolar>
-23.4815

> <Gold.PLP.part.repulsive>
1.6644

> <Gold.PLP.ligand.clash>
0.0000

> <Gold.PLP.ligand.torsion>
1.0753

> <Gold.PLP.Chemscore.Hbond>
3.9913

> <Gold.PLP.Chemscore.CHOScore>
0.0000

> <Gold.PLP.Chemscore.Metal>
0.0000

> <Gold.Chemscore.Hbonds>
donor molecule, donor type, donor heavy atom, donor atom, acceptor molecule, acceptor atom, score
      L1  H     5    24       P1  7957  1.00
      L1  H    11    41       P1  7948  2.00
      P1  H  7989  7998       L1    18  0.99

> <Gold.PLP.Chemscore.Internal.Correction>
0.0281

> <Gold.Rescore>
     Score         DG    S(hbond)    S(metal)    S(lipo)     H(rot)  DE(clash)    DE(int)     intcor
     14.10     -17.68       2.93        0.00      54.28       1.54       0.03       3.56       ----

> <Gold.Chemscore.Fitness>
14.0951

> <Gold.Chemscore.DG>
-17.6825

> <Gold.Chemscore.ZeroCoef>
-5.4800

> <Gold.Chemscore.Hbond>
2.9330

> <Gold.Chemscore.Metal>
0.0000

> <Gold.Chemscore.Lipo>
54.2810

> <Gold.Chemscore.Internal_Hbond>
0.0000

> <Gold.Chemscore.DEClash>
0.0268

> <Gold.Chemscore.DEInternal>
3.5605

> <Gold.Chemscore.Rot>
1.5409

> <Gold.Chemscore.Internal.Correction>
   9.000000E+99

> <Gold.Chemscore.Hbonds>
donor molecule, donor type, donor heavy atom, donor atom, acceptor molecule, acceptor atom, score
      L1  H     5    24       P1  7957  0.99
      L1  H    11    41       P1  7948  1.00
      P1  H  7989  7998       L1    18  0.17

> <Gold.Chemscore.Hbond.Weighted>
-9.7962

> <Gold.Chemscore.Metal.Weighted>
-0.0000

> <Gold.Chemscore.Lipo.Weighted>
-6.3509

> <Gold.Chemscore.Internal_Hbond.Weighted>
0.0000

> <Gold.Chemscore.DEClash.Weighted>
0.0268

> <Gold.Chemscore.DEInternal.Weighted>
3.5605

> <Gold.Chemscore.Rot.Weighted>
3.9446

> <Gold.Chemscore.Internal.Correction.Weighted>
   9.000000E+99

> <Gold.Protein.RotatedTorsions>
[ 6907 6896 6895 6894 ] final -140.01 input  -60.11 | X-H torsion
[ 7974 7965 7964 7962 ] final   28.24 input  175.53 | X-H torsion
[ 8008 7997 7996 7995 ] final -150.16 input   59.86 | X-H torsion
[ 10167 10162 10161 10158 ] final   55.57 input  -65.29 | X-H torsion
[ 10718 10713 10712 10709 ] final  -59.75 input   66.30 | X-H torsion
[ 10763 10752 10751 10750 ] final  165.15 input  -60.55 | X-H torsion
[ 11005 11000 10999 10996 ] final   36.29 input  -57.11 | X-H torsion

> <Gold.Protein.ActiveResidues>
 VAL166  LYS551  ARG553  GLY616  TRP617  ASP618  TYR619  PRO620  LYS621  CYS622 
 ASP623  PHE694  ASN695  SER759  ASP760  ASP761  ALA762  ILE779  LEU786  VAL792 
 PHE793  MET794  SER795  GLU796  ALA797  LYS798  CYS799  TRP800  GLU811  SER814 

> <Gold.Protein.RotatedAtoms>
  151.0552  133.5591  159.2638 H   0  0  0  0  0  0  0  0  0  0  0  0  # atno 6907 bound_to 6896
  151.2587  135.0646  159.9099 H   0  0  0  0  0  0  0  0  0  0  0  0  # atno 6908 bound_to 6896
  152.5388  134.0301  159.8074 H   0  0  0  0  0  0  0  0  0  0  0  0  # atno 6909 bound_to 6896
  146.1740  139.7083  142.8947 H   0  0  0  0  0  0  0  0  0  0  0  0  # atno 7974 bound_to 7965
  155.6192  140.0679  157.2683 H   0  0  0  0  0  0  0  0  0  0  0  0  # atno 8008 bound_to 7997
  154.4233  140.1787  156.1402 H   0  0  0  0  0  0  0  0  0  0  0  0  # atno 8009 bound_to 7997
  156.0023  140.3335  155.6861 H   0  0  0  0  0  0  0  0  0  0  0  0  # atno 8010 bound_to 7997
  140.2181  144.3818  150.6462 H   0  0  0  0  0  0  0  0  0  0  0  0  # atno 10167 bound_to 10162
  156.1039  130.4183  150.0759 H   0  0  0  0  0  0  0  0  0  0  0  0  # atno 10718 bound_to 10713
  154.3197  135.2756  155.2526 H   0  0  0  0  0  0  0  0  0  0  0  0  # atno 10763 bound_to 10752
  154.4884  135.5840  153.6445 H   0  0  0  0  0  0  0  0  0  0  0  0  # atno 10764 bound_to 10752
  152.9878  135.6128  154.3380 H   0  0  0  0  0  0  0  0  0  0  0  0  # atno 10765 bound_to 10752
  140.2341  134.3493  155.7952 H   0  0  0  0  0  0  0  0  0  0  0  0  # atno 11005 bound_to 11000
  145.4263  141.0411  143.2935 LP  0  0  0  0  0  0  0  0  0  0  0  0  # atno 17320 bound_to 7965
  144.8207  139.5797  143.6988 LP  0  0  0  0  0  0  0  0  0  0  0  0  # atno 17321 bound_to 7965
  140.6275  143.2183  151.6565 LP  0  0  0  0  0  0  0  0  0  0  0  0  # atno 17342 bound_to 10162
  139.5154  144.3378  152.0768 LP  0  0  0  0  0  0  0  0  0  0  0  0  # atno 17343 bound_to 10162
  156.8739  130.9534  151.3606 LP  0  0  0  0  0  0  0  0  0  0  0  0  # atno 17370 bound_to 10713
  157.6213  130.8657  149.9114 LP  0  0  0  0  0  0  0  0  0  0  0  0  # atno 17371 bound_to 10713
  141.2215  133.7262  156.8779 LP  0  0  0  0  0  0  0  0  0  0  0  0  # atno 17394 bound_to 11000
  140.1720  134.9093  157.2845 LP  0  0  0  0  0  0  0  0  0  0  0  0  # atno 17395 bound_to 11000

$$$$
