AV-unprocessed.smi:1939|AV-procd|sdf|7836|dock4
  -GOLD-   22720 9583D 1   1.00000     0.00000
 Structure written by MMmdl.
 29 30  0  0  0  0  0  0  0  0  1 V2000
  148.8329  141.6363  157.4248 O   0  0  0  0  0  0  0  0  0  0  0  0
  149.4772  141.6053  156.3750 C   0  0  0  0  0  0  0  0  0  0  0  0
  151.0116  141.6761  156.3833 C   0  0  0  0  0  0  0  0  0  0  0  0
  151.5743  142.1213  157.6700 N   0  0  0  0  0  0  0  0  0  0  0  0
  151.1794  143.3924  158.1234 C   0  0  0  0  0  0  0  0  0  0  0  0
  151.6230  143.8981  159.2817 C   0  0  0  0  0  0  0  0  0  0  0  0
  152.5316  143.1016  160.0696 C   0  0  0  0  0  0  0  0  0  0  0  0
  152.9251  141.8725  159.6628 C   0  0  0  0  0  0  0  0  0  0  0  0
  153.8868  141.0173  160.4849 C   0  0  0  0  0  0  0  0  0  0  0  0
  153.4823  139.7468  160.5072 F   0  0  0  0  0  0  0  0  0  0  0  0
  155.1127  141.0549  159.9612 F   0  0  0  0  0  0  0  0  0  0  0  0
  153.9706  141.4404  161.7473 F   0  0  0  0  0  0  0  0  0  0  0  0
  152.4242  141.3220  158.3864 C   0  0  0  0  0  0  0  0  0  0  0  0
  152.7473  140.2052  157.9785 O   0  0  0  0  0  0  0  0  0  0  0  0
  148.9074  141.5115  155.1648 N   0  0  0  0  0  0  0  0  0  0  0  0
  147.5048  141.4382  154.9112 C   0  0  0  0  0  0  0  0  0  0  0  0
  147.0600  141.2478  153.4773 C   0  0  0  0  0  0  0  0  0  0  0  0
  146.8675  142.5796  154.1486 C   0  0  0  0  0  0  0  0  0  0  0  0
  151.4086  140.6994  156.1012 H   0  0  0  0  0  0  0  0  0  0  0  0
  151.3323  142.3502  155.5874 H   0  0  0  0  0  0  0  0  0  0  0  0
  150.4921  143.9188  157.4769 H   0  0  0  0  0  0  0  0  0  0  0  0
  151.3060  144.8739  159.6188 H   0  0  0  0  0  0  0  0  0  0  0  0
  152.8949  143.5100  161.0009 H   0  0  0  0  0  0  0  0  0  0  0  0
  149.5149  141.4910  154.3583 H   0  0  0  0  0  0  0  0  0  0  0  0
  146.8833  140.9628  155.6690 H   0  0  0  0  0  0  0  0  0  0  0  0
  147.8284  141.1796  152.7095 H   0  0  0  0  0  0  0  0  0  0  0  0
  146.1740  140.6403  153.3039 H   0  0  0  0  0  0  0  0  0  0  0  0
  145.8532  142.8618  154.4236 H   0  0  0  0  0  0  0  0  0  0  0  0
  147.5082  143.4000  153.8307 H   0  0  0  0  0  0  0  0  0  0  0  0
  1  2  2  0  0  0  0
  2  3  1  0  0  0  0
  2 15  1  0  0  0  0
  3  4  1  0  0  0  0
  3 19  1  0  0  0  0
  3 20  1  0  0  0  0
  4 13  1  0  0  0  0
  4  5  1  0  0  0  0
  5  6  2  0  0  0  0
  5 21  1  0  0  0  0
  6  7  1  0  0  0  0
  6 22  1  0  0  0  0
  7  8  2  0  0  0  0
  7 23  1  0  0  0  0
  8  9  1  0  0  0  0
  8 13  1  0  0  0  0
  9 10  1  0  0  0  0
  9 11  1  0  0  0  0
  9 12  1  0  0  0  0
 13 14  2  0  0  0  0
 15 16  1  0  0  0  0
 15 24  1  0  0  0  0
 16 18  1  0  0  0  0
 16 17  1  0  0  0  0
 16 25  1  0  0  0  0
 17 18  1  0  0  0  0
 17 26  1  0  0  0  0
 17 27  1  0  0  0  0
 18 28  1  0  0  0  0
 18 29  1  0  0  0  0
M  END
> <s_m_source_file>
AV-unprocessed.smi

> <i_m_source_file_index>
1939

> <i_lp_mmshare_version>
43012

> <i_f3d_flags>
0

> <s_epik_input>
W0NIMl0xW0NIMl1bQ0hdMVtOSF1DKD1PKVtDSDJdbjJbY0hdW2NIXVtjSF1jKEMoRikoRilGKWMyPU8=

> <s_epik_cmdline>
J2VwaWtfcHl0aG9uJywgJy1waCcsICc3LjAnLCAnLXRuJywgJzgnLCAnLW1hJywgJzIwMCcsICctbWV0YWxfYmluZGluZycsICctaW1hZScsICc8aW5maWxlLm1hZT4nLCAnLW9tYWUnLCAnPG91dGZpbGUubWFlPic=

> <r_lp_tautomer_probability>
1

> <r_epik_Ionization_Penalty>
2.25843e-08

> <r_epik_Ionization_Penalty_Charging>
1.91398e-09

> <r_epik_Ionization_Penalty_Neutral>
2.06703e-08

> <r_epik_State_Penalty>
-0

> <r_epik_Charging_Adjusted_Penalty>
1.91398e-09

> <i_epik_Tot_Q>
0

> <i_epik_Tot_abs_Q>
0

> <r_epik_Metal_State_Penalty>
-0

> <b_epik_Metal_Only>
0

> <s_lp_Force_Field>
OPLS_2005

> <r_lp_Energy>
25.9148

> <b_lp_Chiralities_Consistent>
1

> <s_lp_Variant>
AV-unprocessed.smi:1939-1

> <Gold.Version>
5.8.1

> <Gold.Id.Protein>
6NUR|6NUR_protein|mol2

> <Gold.PLP.Fitness>
45.1354

> <Gold.PLP.PLP>
-40.5813

> <Gold.PLP.part.hbond>
-1.3788

> <Gold.PLP.part.metal>
0.0000

> <Gold.PLP.part.buried>
-4.2625

> <Gold.PLP.part.nonpolar>
-34.0616

> <Gold.PLP.part.repulsive>
0.2497

> <Gold.PLP.ligand.clash>
0.0000

> <Gold.PLP.ligand.torsion>
0.8976

> <Gold.PLP.Chemscore.Hbond>
0.9920

> <Gold.PLP.Chemscore.CHOScore>
1.0000

> <Gold.PLP.Chemscore.Metal>
0.0000

> <Gold.Chemscore.Hbonds>
donor molecule, donor type, donor heavy atom, donor atom, acceptor molecule, acceptor atom, score
      P1  H  7997  8009       L1    14  0.93
      L1  C     5    21       P1  8028  1.00

> <Gold.PLP.Chemscore.Internal.Correction>
0.3734

> <Gold.Rescore>
     Score         DG    S(hbond)    S(metal)    S(lipo)     H(rot)  DE(clash)    DE(int)     intcor
     11.59     -13.75       0.90        0.00      80.45       1.62       0.03       2.13       ----

> <Gold.Chemscore.Fitness>
11.5903

> <Gold.Chemscore.DG>
-13.7490

> <Gold.Chemscore.ZeroCoef>
-5.4800

> <Gold.Chemscore.Hbond>
0.8987

> <Gold.Chemscore.Metal>
0.0000

> <Gold.Chemscore.Lipo>
80.4508

> <Gold.Chemscore.Internal_Hbond>
0.0000

> <Gold.Chemscore.DEClash>
0.0337

> <Gold.Chemscore.DEInternal>
2.1250

> <Gold.Chemscore.Rot>
1.6192

> <Gold.Chemscore.Internal.Correction>
   9.000000E+99

> <Gold.Chemscore.Hbonds>
donor molecule, donor type, donor heavy atom, donor atom, acceptor molecule, acceptor atom, score
      P1  H  7997  8009       L1    14  0.79

> <Gold.Chemscore.Hbond.Weighted>
-3.0015

> <Gold.Chemscore.Metal.Weighted>
-0.0000

> <Gold.Chemscore.Lipo.Weighted>
-9.4127

> <Gold.Chemscore.Internal_Hbond.Weighted>
0.0000

> <Gold.Chemscore.DEClash.Weighted>
0.0337

> <Gold.Chemscore.DEInternal.Weighted>
2.1250

> <Gold.Chemscore.Rot.Weighted>
4.1452

> <Gold.Chemscore.Internal.Correction.Weighted>
   9.000000E+99

> <Gold.Protein.RotatedTorsions>
[ 6907 6896 6895 6894 ] final -151.51 input  -60.11 | X-H torsion
[ 7974 7965 7964 7962 ] final  -65.10 input  175.53 | X-H torsion
[ 8008 7997 7996 7995 ] final  168.75 input   59.86 | X-H torsion
[ 10167 10162 10161 10158 ] final  -65.02 input  -65.29 | X-H torsion
[ 10718 10713 10712 10709 ] final    2.23 input   66.30 | X-H torsion
[ 10763 10752 10751 10750 ] final -102.08 input  -60.55 | X-H torsion
[ 11005 11000 10999 10996 ] final -154.22 input  -57.11 | X-H torsion

> <Gold.Protein.ActiveResidues>
 VAL166  LYS551  ARG553  GLY616  TRP617  ASP618  TYR619  PRO620  LYS621  CYS622 
 ASP623  PHE694  ASN695  SER759  ASP760  ASP761  ALA762  ILE779  LEU786  VAL792 
 PHE793  MET794  SER795  GLU796  ALA797  LYS798  CYS799  TRP800  GLU811  SER814 

> <Gold.Protein.RotatedAtoms>
  151.2142  133.4538  159.2598 H   0  0  0  0  0  0  0  0  0  0  0  0  # atno 6907 bound_to 6896
  151.0947  134.9937  159.8430 H   0  0  0  0  0  0  0  0  0  0  0  0  # atno 6908 bound_to 6896
  152.5438  134.2073  159.8789 H   0  0  0  0  0  0  0  0  0  0  0  0  # atno 6909 bound_to 6896
  145.7585  140.8873  143.0442 H   0  0  0  0  0  0  0  0  0  0  0  0  # atno 7974 bound_to 7965
  156.1519  140.1582  156.8755 H   0  0  0  0  0  0  0  0  0  0  0  0  # atno 8008 bound_to 7997
  154.5079  140.0808  156.7968 H   0  0  0  0  0  0  0  0  0  0  0  0  # atno 8009 bound_to 7997
  155.3879  140.3408  155.4252 H   0  0  0  0  0  0  0  0  0  0  0  0  # atno 8010 bound_to 7997
  140.5760  143.2322  151.6442 H   0  0  0  0  0  0  0  0  0  0  0  0  # atno 10167 bound_to 10162
  156.8599  130.5583  149.5663 H   0  0  0  0  0  0  0  0  0  0  0  0  # atno 10718 bound_to 10713
  154.7707  135.4874  153.9642 H   0  0  0  0  0  0  0  0  0  0  0  0  # atno 10763 bound_to 10752
  153.1364  135.6763  153.9104 H   0  0  0  0  0  0  0  0  0  0  0  0  # atno 10764 bound_to 10752
  153.8792  135.3134  155.3423 H   0  0  0  0  0  0  0  0  0  0  0  0  # atno 10765 bound_to 10752
  140.6997  134.3951  157.5211 H   0  0  0  0  0  0  0  0  0  0  0  0  # atno 11005 bound_to 11000
  144.6835  139.9689  143.7482 LP  0  0  0  0  0  0  0  0  0  0  0  0  # atno 17320 bound_to 7965
  146.0287  139.3316  143.0768 LP  0  0  0  0  0  0  0  0  0  0  0  0  # atno 17321 bound_to 7965
  139.5143  144.3416  152.0735 LP  0  0  0  0  0  0  0  0  0  0  0  0  # atno 17342 bound_to 10162
  140.2559  144.4119  150.6204 LP  0  0  0  0  0  0  0  0  0  0  0  0  # atno 17343 bound_to 10162
  156.0782  130.5799  150.9514 LP  0  0  0  0  0  0  0  0  0  0  0  0  # atno 17370 bound_to 10713
  157.6256  131.0926  150.8540 LP  0  0  0  0  0  0  0  0  0  0  0  0  # atno 17371 bound_to 10713
  139.8900  134.8815  156.2391 LP  0  0  0  0  0  0  0  0  0  0  0  0  # atno 17394 bound_to 11000
  141.0174  133.7061  156.1211 LP  0  0  0  0  0  0  0  0  0  0  0  0  # atno 17395 bound_to 11000

$$$$
