AV-unprocessed.smi:3058|AV-procd|sdf|11672|dock3
  -GOLD-   2272017 73D 1   1.00000     0.00000
 Structure written by MMmdl.
 38 40  0  0  0  0  0  0  0  0  1 V2000
  152.6927  140.4431  158.9407 O   0  0  0  0  0  0  0  0  0  0  0  0
  151.9099  141.3233  158.5824 C   0  0  0  0  0  0  0  0  0  0  0  0
  151.0612  141.1750  157.5525 N   0  0  0  0  0  0  0  0  0  0  0  0
  150.8640  139.9473  156.7852 C   0  0  0  0  0  0  0  0  0  0  0  0
  150.9114  140.2041  155.2659 C   0  0  0  0  0  0  0  0  0  0  0  0
  149.5419  140.2151  154.6075 C   0  0  0  0  0  0  0  0  0  0  0  0
  148.9640  139.0271  154.1129 C   0  0  0  0  0  0  0  0  0  0  0  0
  147.7083  139.0954  153.4800 C   0  0  0  0  0  0  0  0  0  0  0  0
  147.0801  140.3519  153.3714 C   0  0  0  0  0  0  0  0  0  0  0  0
  147.6209  141.4950  153.8454 N   0  0  0  0  0  0  0  0  0  0  0  0
  148.8270  141.4213  154.4486 C   0  0  0  0  0  0  0  0  0  0  0  0
  151.8317  142.6632  159.3334 C   0  0  1  0  0  0  0  0  0  0  0  0
  153.1129  143.5175  159.1682 C   0  0  0  0  0  0  0  0  0  0  0  0
  152.5753  144.8621  158.6410 C   0  0  2  0  0  0  0  0  0  0  0  0
  151.7760  145.5671  159.7536 C   0  0  0  0  0  0  0  0  0  0  0  0
  150.4881  144.7241  159.8333 C   0  0  0  0  0  0  0  0  0  0  0  0
  150.7425  143.6214  158.7876 C   0  0  1  0  0  0  0  0  0  0  0  0
  151.4681  144.4120  157.6985 C   0  0  0  0  0  0  0  0  0  0  0  0
  150.4602  141.9533  157.3236 H   0  0  0  0  0  0  0  0  0  0  0  0
  151.6453  139.2394  157.0615 H   0  0  0  0  0  0  0  0  0  0  0  0
  149.9186  139.4726  157.0530 H   0  0  0  0  0  0  0  0  0  0  0  0
  151.4038  141.1582  155.0734 H   0  0  0  0  0  0  0  0  0  0  0  0
  151.5269  139.4440  154.7836 H   0  0  0  0  0  0  0  0  0  0  0  0
  149.4781  138.0816  154.2038 H   0  0  0  0  0  0  0  0  0  0  0  0
  147.2399  138.2070  153.0831 H   0  0  0  0  0  0  0  0  0  0  0  0
  146.1173  140.4413  152.8903 H   0  0  0  0  0  0  0  0  0  0  0  0
  149.2383  142.3539  154.8061 H   0  0  0  0  0  0  0  0  0  0  0  0
  151.6497  142.4586  160.3899 H   0  0  0  0  0  0  0  0  0  0  0  0
  153.6508  143.6338  160.1096 H   0  0  0  0  0  0  0  0  0  0  0  0
  153.8094  143.0818  158.4492 H   0  0  0  0  0  0  0  0  0  0  0  0
  153.3408  145.4909  158.1857 H   0  0  0  0  0  0  0  0  0  0  0  0
  152.3181  145.5893  160.6997 H   0  0  0  0  0  0  0  0  0  0  0  0
  151.5441  146.5959  159.4758 H   0  0  0  0  0  0  0  0  0  0  0  0
  150.3109  144.3237  160.8321 H   0  0  0  0  0  0  0  0  0  0  0  0
  149.6203  145.3249  159.5578 H   0  0  0  0  0  0  0  0  0  0  0  0
  149.8320  143.1209  158.4556 H   0  0  0  0  0  0  0  0  0  0  0  0
  150.8784  145.2394  157.3001 H   0  0  0  0  0  0  0  0  0  0  0  0
  151.8292  143.8072  156.8665 H   0  0  0  0  0  0  0  0  0  0  0  0
  1  2  2  0  0  0  0
  2  3  1  0  0  0  0
  2 12  1  0  0  0  0
  3  4  1  0  0  0  0
  3 19  1  0  0  0  0
  4  5  1  0  0  0  0
  4 20  1  0  0  0  0
  4 21  1  0  0  0  0
  5  6  1  0  0  0  0
  5 22  1  0  0  0  0
  5 23  1  0  0  0  0
  6 11  1  0  0  0  0
  6  7  2  0  0  0  0
  7  8  1  0  0  0  0
  7 24  1  0  0  0  0
  8  9  2  0  0  0  0
  8 25  1  0  0  0  0
  9 10  1  0  0  0  0
  9 26  1  0  0  0  0
 10 11  2  0  0  0  0
 11 27  1  0  0  0  0
 12 17  1  0  0  0  0
 12 13  1  0  0  0  0
 12 28  1  0  0  0  0
 13 14  1  0  0  0  0
 13 29  1  0  0  0  0
 13 30  1  0  0  0  0
 14 18  1  0  0  0  0
 14 15  1  0  0  0  0
 14 31  1  0  0  0  0
 15 16  1  0  0  0  0
 15 32  1  0  0  0  0
 15 33  1  0  0  0  0
 16 17  1  0  0  0  0
 16 34  1  0  0  0  0
 16 35  1  0  0  0  0
 17 18  1  0  0  0  0
 17 36  1  0  0  0  0
 18 37  1  0  0  0  0
 18 38  1  0  0  0  0
M  END
> <s_m_source_file>
AV-unprocessed.smi

> <i_m_source_file_index>
3058

> <i_lp_mmshare_version>
43012

> <i_f3d_flags>
0

> <s_epik_input>
W0NIMl0xW0NIMl1bQ0BIXShbQ0gyXTIpW0NAQEhdKFtDSDJdW0NAQEhdMTIpQyg9TylbTkhdW0NIMl1bQ0gyXWMzW2NIXVtjSF1bY0hdbltjSF0z

> <s_epik_cmdline>
J2VwaWtfcHl0aG9uJywgJy1waCcsICc3LjAnLCAnLXRuJywgJzgnLCAnLW1hJywgJzIwMCcsICctbWV0YWxfYmluZGluZycsICctaW1hZScsICc8aW5maWxlLm1hZT4nLCAnLW9tYWUnLCAnPG91dGZpbGUubWFlPic=

> <r_epik_Ionization_Penalty>
0.0135821

> <r_epik_Ionization_Penalty_Charging>
0

> <r_epik_Ionization_Penalty_Neutral>
0.0135821

> <r_epik_State_Penalty>
0.0105782

> <r_epik_Charging_Adjusted_Penalty>
0.0105782

> <i_epik_Tot_Q>
0

> <i_epik_Tot_abs_Q>
0

> <r_epik_Metal_State_Penalty>
0.0103407

> <b_epik_Metal_Only>
0

> <s_lp_Force_Field>
OPLS_2005

> <r_lp_Energy>
47.0399

> <b_lp_Chiralities_Consistent>
1

> <s_lp_Variant>
AV-unprocessed.smi:3058-4

> <Gold.Version>
5.8.1

> <Gold.Id.Protein>
6NUR|6NUR_protein|mol2

> <Gold.PLP.Fitness>
47.8164

> <Gold.PLP.PLP>
-43.3750

> <Gold.PLP.part.hbond>
0.0000

> <Gold.PLP.part.metal>
0.0000

> <Gold.PLP.part.buried>
-2.7270

> <Gold.PLP.part.nonpolar>
-40.1310

> <Gold.PLP.part.repulsive>
0.2212

> <Gold.PLP.ligand.clash>
0.0000

> <Gold.PLP.ligand.torsion>
0.7949

> <Gold.PLP.Chemscore.Hbond>
0.0000

> <Gold.PLP.Chemscore.CHOScore>
2.0000

> <Gold.PLP.Chemscore.Metal>
0.0000

> <Gold.Chemscore.Hbonds>
donor molecule, donor type, donor heavy atom, donor atom, acceptor molecule, acceptor atom, score
      L1  C     9    26       P1 10175  1.00
      L1  C    11    27       P1  8028  1.00

> <Gold.PLP.Chemscore.Internal.Correction>
0.0312

> <Gold.Rescore>
     Score         DG    S(hbond)    S(metal)    S(lipo)     H(rot)  DE(clash)    DE(int)     intcor
     16.37     -17.36       0.00        0.00     131.41       1.37       0.16       0.83       ----

> <Gold.Chemscore.Fitness>
16.3681

> <Gold.Chemscore.DG>
-17.3596

> <Gold.Chemscore.ZeroCoef>
-5.4800

> <Gold.Chemscore.Hbond>
0.0000

> <Gold.Chemscore.Metal>
0.0000

> <Gold.Chemscore.Lipo>
131.4081

> <Gold.Chemscore.Internal_Hbond>
0.0000

> <Gold.Chemscore.DEClash>
0.1623

> <Gold.Chemscore.DEInternal>
0.8292

> <Gold.Chemscore.Rot>
1.3653

> <Gold.Chemscore.Internal.Correction>
   9.000000E+99

> <Gold.Chemscore.Hbond.Weighted>
-0.0000

> <Gold.Chemscore.Metal.Weighted>
-0.0000

> <Gold.Chemscore.Lipo.Weighted>
-15.3747

> <Gold.Chemscore.Internal_Hbond.Weighted>
0.0000

> <Gold.Chemscore.DEClash.Weighted>
0.1623

> <Gold.Chemscore.DEInternal.Weighted>
0.8292

> <Gold.Chemscore.Rot.Weighted>
3.4951

> <Gold.Chemscore.Internal.Correction.Weighted>
   9.000000E+99

> <Gold.Protein.RotatedTorsions>
[ 6907 6896 6895 6894 ] final   35.53 input  -60.11 | X-H torsion
[ 7974 7965 7964 7962 ] final    2.81 input  175.53 | X-H torsion
[ 8008 7997 7996 7995 ] final  176.45 input   59.86 | X-H torsion
[ 10167 10162 10161 10158 ] final  -52.99 input  -65.29 | X-H torsion
[ 10718 10713 10712 10709 ] final   33.20 input   66.30 | X-H torsion
[ 10763 10752 10751 10750 ] final  -56.83 input  -60.55 | X-H torsion
[ 11005 11000 10999 10996 ] final  -18.35 input  -57.11 | X-H torsion

> <Gold.Protein.ActiveResidues>
 VAL166  LYS551  ARG553  GLY616  TRP617  ASP618  TYR619  PRO620  LYS621  CYS622 
 ASP623  PHE694  ASN695  SER759  ASP760  ASP761  ALA762  ILE779  LEU786  VAL792 
 PHE793  MET794  SER795  GLU796  ALA797  LYS798  CYS799  TRP800  GLU811  SER814 

> <Gold.Protein.RotatedAtoms>
  152.1174  134.9230  160.0564 H   0  0  0  0  0  0  0  0  0  0  0  0  # atno 6907 bound_to 6896
  152.0384  133.3962  159.4335 H   0  0  0  0  0  0  0  0  0  0  0  0  # atno 6908 bound_to 6896
  150.6847  134.3363  159.4892 H   0  0  0  0  0  0  0  0  0  0  0  0  # atno 6909 bound_to 6896
  146.2444  140.0779  142.8358 H   0  0  0  0  0  0  0  0  0  0  0  0  # atno 7974 bound_to 7965
  156.0763  140.1383  156.9767 H   0  0  0  0  0  0  0  0  0  0  0  0  # atno 8008 bound_to 7997
  154.4560  140.0961  156.6807 H   0  0  0  0  0  0  0  0  0  0  0  0  # atno 8009 bound_to 7997
  155.5147  140.3454  155.4397 H   0  0  0  0  0  0  0  0  0  0  0  0  # atno 8010 bound_to 7997
  140.6508  143.2565  151.4728 H   0  0  0  0  0  0  0  0  0  0  0  0  # atno 10167 bound_to 10162
  157.2948  130.7321  149.6632 H   0  0  0  0  0  0  0  0  0  0  0  0  # atno 10718 bound_to 10713
  154.2129  135.6391  153.5121 H   0  0  0  0  0  0  0  0  0  0  0  0  # atno 10763 bound_to 10752
  152.9986  135.5478  154.6196 H   0  0  0  0  0  0  0  0  0  0  0  0  # atno 10764 bound_to 10752
  154.5637  135.2911  155.0868 H   0  0  0  0  0  0  0  0  0  0  0  0  # atno 10765 bound_to 10752
  140.8259  133.8033  155.9707 H   0  0  0  0  0  0  0  0  0  0  0  0  # atno 11005 bound_to 11000
  145.0758  140.9187  143.4854 LP  0  0  0  0  0  0  0  0  0  0  0  0  # atno 17320 bound_to 7965
  145.0922  139.2882  143.5729 LP  0  0  0  0  0  0  0  0  0  0  0  0  # atno 17321 bound_to 7965
  139.5723  144.1899  152.1854 LP  0  0  0  0  0  0  0  0  0  0  0  0  # atno 17342 bound_to 10162
  140.1199  144.5382  150.6870 LP  0  0  0  0  0  0  0  0  0  0  0  0  # atno 17343 bound_to 10162
  155.9668  130.4298  150.4847 LP  0  0  0  0  0  0  0  0  0  0  0  0  # atno 17370 bound_to 10713
  157.2816  131.0608  151.2193 LP  0  0  0  0  0  0  0  0  0  0  0  0  # atno 17371 bound_to 10713
  140.9050  134.2332  157.5020 LP  0  0  0  0  0  0  0  0  0  0  0  0  # atno 17394 bound_to 11000
  139.8706  134.9724  156.4771 LP  0  0  0  0  0  0  0  0  0  0  0  0  # atno 17395 bound_to 11000

$$$$
