#       Name:                AV-unprocessed.smi:2426
#       Creating user name   scv26
#       Creation time:       Fri Mar 27 13:21:03 2020


#       File generated by GOLD software.
#

@<TRIPOS>MOLECULE
AV-unprocessed.smi:2426
    42    43     1
SMALL
NO_CHARGES


@<TRIPOS>ATOM
      1 ****        -6.3047  -3.0241   0.4805 C.3            1 S1                 0.0000
      2 ****        -4.8919  -3.0166   0.6525 O.3            1 S1                 0.0000
      3 ****        -4.2250  -1.8176   0.5103 C.ar           1 S1                 0.0000
      4 ****        -2.8251  -1.7821   0.6754 C.ar           1 S1                 0.0000
      5 ****        -2.1804  -0.5347   0.5179 C.ar           1 S1                 0.0000
      6 ****        -0.7710  -0.5425   0.6903 N.am           1 S1                 0.0000
      7 ****         0.0859   0.4852   0.5568 C.2            1 S1                 0.0000
      8 ****        -0.2286   1.6392   0.2640 O.2            1 S1                 0.0000
      9 ****         1.3500   0.0933   0.7770 N.am           1 S1                 0.0000
     10 ****         2.5345   0.9435   0.6844 C.3            1 S1                 0.0000
     11 ****         3.5276   0.5466   1.7856 C.3            1 S1                 0.0000
     12 ****         3.1503   0.8324  -0.7120 C.3            1 S1                 0.0000
     13 ****         4.3348   1.7291  -1.1040 C.3            1 S1                 0.0000
     14 ****         3.7771   1.7644  -2.5296 C.3            1 S1                 0.0000
     15 ****         2.4134   1.4069  -1.9326 C.3            1 S1                 0.0000
     16 ****        -2.9085   0.5702   0.2212 N.ar           1 S1                 0.0000
     17 ****        -4.2286   0.4320   0.0862 C.ar           1 S1                 0.0000
     18 ****        -4.9267  -0.6970   0.2135 N.ar           1 S1                 0.0000
     19 ****        -6.6796  -4.0383   0.6164 H              1 S1                 0.0000
     20 ****        -6.5867  -2.6991  -0.5222 H              1 S1                 0.0000
     21 ****        -6.7988  -2.3870   1.2156 H              1 S1                 0.0000
     22 ****        -2.2729  -2.6800   0.9118 H              1 S1                 0.0000
     23 ****        -0.3674  -1.4359   0.9298 H              1 S1                 0.0000
     24 ****         1.5099  -0.8750   1.0128 H              1 S1                 0.0000
     25 ****         2.2490   1.9806   0.8694 H              1 S1                 0.0000
     26 ****         4.4105   1.1861   1.7671 H              1 S1                 0.0000
     27 ****         3.8618  -0.4848   1.6673 H              1 S1                 0.0000
     28 ****         3.0768   0.6405   2.7742 H              1 S1                 0.0000
     29 ****         3.4213  -0.2034  -0.9297 H              1 S1                 0.0000
     30 ****         4.3071   2.7053  -0.6171 H              1 S1                 0.0000
     31 ****         5.3141   1.2596  -1.0070 H              1 S1                 0.0000
     32 ****         3.8225   2.7397  -3.0149 H              1 S1                 0.0000
     33 ****         4.1822   0.9743  -3.1639 H              1 S1                 0.0000
     34 ****         1.8389   0.6769  -2.5031 H              1 S1                 0.0000
     35 ****         1.8167   2.2884  -1.6924 H              1 S1                 0.0000
     36 ****        -4.7885   1.3246  -0.1502 H              1 S1                 0.0000
     37 ****        -4.5081  -3.6510  -0.0185 LP             1 S1                 0.0000
     38 ****        -4.7037  -3.3532   1.5751 LP             1 S1                 0.0000
     39 ****        -1.1882   1.8709   0.1048 LP             1 S1                 0.0000
     40 ****         0.4758   2.3447   0.1853 LP             1 S1                 0.0000
     41 ****        -2.4693   1.4613   0.1070 LP             1 S1                 0.0000
     42 ****        -5.9195  -0.7158   0.0956 LP             1 S1                 0.0000
@<TRIPOS>BOND
    1    1    2 1     
    2    1   19 1     
    3    1   20 1     
    4    1   21 1     
    5    2    3 1     
    6    3   18 ar    
    7    3    4 ar    
    8    4    5 ar    
    9    4   22 1     
   10    5    6 1     
   11    5   16 ar    
   12    6    7 am    
   13    6   23 1     
   14    7    8 2     
   15    7    9 am    
   16    9   10 1     
   17    9   24 1     
   18   10   11 1     
   19   10   12 1     
   20   10   25 1     
   21   11   26 1     
   22   11   27 1     
   23   11   28 1     
   24   12   15 1     
   25   12   13 1     
   26   12   29 1     
   27   13   14 1     
   28   13   30 1     
   29   13   31 1     
   30   14   15 1     
   31   14   32 1     
   32   14   33 1     
   33   15   34 1     
   34   15   35 1     
   35   16   17 ar    
   36   17   18 ar    
   37   17   36 1     
   38    2   37 1     
   39    2   38 1     
   40    8   39 1     
   41    8   40 1     
   42   16   41 1     
   43   18   42 1     
@<TRIPOS>SUBSTRUCTURE
      1 S1             1
@<TRIPOS>SET
LONE_PAIRS      STATIC     ATOMS    <user>   **** ""
6 37 38 39 40 41 42
DONOR_HYDROGENS      STATIC     ATOMS    <user>   **** ""
2 23 24
ATOM$BLUE        STATIC     ATOMS    COLORGROUP SYSTEM
6 37 38 39 40 41 42
ATOM$RED        STATIC     ATOMS    COLORGROUP SYSTEM
2 23 24
