AV-unprocessed.smi:2276|AV-procd|sdf|9177|dock1
  -GOLD-   2272012393D 1   1.00000     0.00000
 Structure written by MMmdl.
 52 53  0  0  0  0  0  0  0  0  1 V2000
  151.7909  145.4486  160.8787 C   0  0  0  0  0  0  0  0  0  0  0  0
  151.9500  144.2405  159.9795 C   0  0  0  0  0  0  0  0  0  0  0  0
  152.9319  143.2667  160.2438 C   0  0  0  0  0  0  0  0  0  0  0  0
  153.0278  142.1656  159.3702 C   0  0  0  0  0  0  0  0  0  0  0  0
  154.0639  141.0834  159.5907 C   0  0  0  0  0  0  0  0  0  0  0  0
  152.2222  142.0024  158.2992 N   0  0  0  0  0  0  0  0  0  0  0  0
  151.2721  142.9334  158.0356 C   0  0  0  0  0  0  0  0  0  0  0  0
  150.3800  142.8574  156.9332 N   0  0  0  0  0  0  0  0  0  0  0  0
  150.2165  141.8433  156.0653 C   0  0  0  0  0  0  0  0  0  0  0  0
  150.8186  140.7696  156.1007 O   0  0  0  0  0  0  0  0  0  0  0  0
  149.2901  142.1390  155.1437 N   0  0  0  0  0  0  0  0  0  0  0  0
  148.8535  141.2327  154.0877 C   0  0  0  0  0  0  0  0  0  0  0  0
  147.3262  141.2929  153.8704 C   0  0  1  0  0  0  0  0  0  0  0  0
  146.8123  140.0411  153.1328 C   0  0  0  0  0  0  0  0  0  0  0  0
  146.5149  141.4846  155.1743 C   0  0  0  0  0  0  0  0  0  0  0  0
  145.2504  142.2135  155.0384 N   0  0  0  0  0  0  0  0  0  0  0  0
  145.4050  143.4608  154.2789 C   0  0  0  0  0  0  0  0  0  0  0  0
  144.0618  144.1974  154.1236 C   0  0  0  0  0  0  0  0  0  0  0  0
  143.4846  144.5279  155.4247 N   0  0  0  0  0  0  0  0  0  0  0  0
  142.2140  145.2228  155.2854 C   0  0  0  0  0  0  0  0  0  0  0  0
  143.3440  143.3015  156.2064 C   0  0  0  0  0  0  0  0  0  0  0  0
  144.6907  142.5658  156.3459 C   0  0  0  0  0  0  0  0  0  0  0  0
  151.1121  144.0707  158.8589 C   0  0  0  0  0  0  0  0  0  0  0  0
  152.5540  145.4664  161.6574 H   0  0  0  0  0  0  0  0  0  0  0  0
  150.8126  145.4341  161.3598 H   0  0  0  0  0  0  0  0  0  0  0  0
  151.8757  146.3672  160.2977 H   0  0  0  0  0  0  0  0  0  0  0  0
  153.5939  143.3610  161.0924 H   0  0  0  0  0  0  0  0  0  0  0  0
  154.7004  141.3125  160.4458 H   0  0  0  0  0  0  0  0  0  0  0  0
  154.7001  140.9826  158.7109 H   0  0  0  0  0  0  0  0  0  0  0  0
  153.5773  140.1251  159.7744 H   0  0  0  0  0  0  0  0  0  0  0  0
  149.7919  143.6657  156.7947 H   0  0  0  0  0  0  0  0  0  0  0  0
  148.8439  143.0437  155.1830 H   0  0  0  0  0  0  0  0  0  0  0  0
  149.3750  141.4591  153.1560 H   0  0  0  0  0  0  0  0  0  0  0  0
  149.1504  140.2321  154.3982 H   0  0  0  0  0  0  0  0  0  0  0  0
  147.1166  142.1502  153.2289 H   0  0  0  0  0  0  0  0  0  0  0  0
  147.0189  139.1355  153.7042 H   0  0  0  0  0  0  0  0  0  0  0  0
  147.2723  139.9271  152.1512 H   0  0  0  0  0  0  0  0  0  0  0  0
  145.7350  140.0921  152.9723 H   0  0  0  0  0  0  0  0  0  0  0  0
  146.2964  140.4822  155.5458 H   0  0  0  0  0  0  0  0  0  0  0  0
  147.1356  141.9403  155.9472 H   0  0  0  0  0  0  0  0  0  0  0  0
  146.1188  144.1157  154.7812 H   0  0  0  0  0  0  0  0  0  0  0  0
  145.8172  143.2711  153.2913 H   0  0  0  0  0  0  0  0  0  0  0  0
  144.2148  145.1106  153.5470 H   0  0  0  0  0  0  0  0  0  0  0  0
  143.3686  143.5787  153.5512 H   0  0  0  0  0  0  0  0  0  0  0  0
  141.8084  145.4857  156.2630 H   0  0  0  0  0  0  0  0  0  0  0  0
  141.4802  144.6033  154.7681 H   0  0  0  0  0  0  0  0  0  0  0  0
  142.3394  146.1459  154.7185 H   0  0  0  0  0  0  0  0  0  0  0  0
  142.9574  143.5393  157.1980 H   0  0  0  0  0  0  0  0  0  0  0  0
  142.6139  142.6401  155.7370 H   0  0  0  0  0  0  0  0  0  0  0  0
  144.5377  141.6623  156.9371 H   0  0  0  0  0  0  0  0  0  0  0  0
  145.3956  143.1869  156.9014 H   0  0  0  0  0  0  0  0  0  0  0  0
  150.3518  144.8059  158.6371 H   0  0  0  0  0  0  0  0  0  0  0  0
  1  2  1  0  0  0  0
  1 24  1  0  0  0  0
  1 25  1  0  0  0  0
  1 26  1  0  0  0  0
  2 23  1  0  0  0  0
  2  3  2  0  0  0  0
  3  4  1  0  0  0  0
  3 27  1  0  0  0  0
  4  5  1  0  0  0  0
  4  6  2  0  0  0  0
  5 28  1  0  0  0  0
  5 29  1  0  0  0  0
  5 30  1  0  0  0  0
  6  7  1  0  0  0  0
  7  8  1  0  0  0  0
  7 23  2  0  0  0  0
  8  9  1  0  0  0  0
  8 31  1  0  0  0  0
  9 10  2  0  0  0  0
  9 11  1  0  0  0  0
 11 12  1  0  0  0  0
 11 32  1  0  0  0  0
 12 13  1  0  0  0  0
 12 33  1  0  0  0  0
 12 34  1  0  0  0  0
 13 14  1  0  0  0  0
 13 15  1  0  0  0  0
 13 35  1  0  0  0  0
 14 36  1  0  0  0  0
 14 37  1  0  0  0  0
 14 38  1  0  0  0  0
 15 16  1  0  0  0  0
 15 39  1  0  0  0  0
 15 40  1  0  0  0  0
 16 22  1  0  0  0  0
 16 17  1  0  0  0  0
 17 18  1  0  0  0  0
 17 41  1  0  0  0  0
 17 42  1  0  0  0  0
 18 19  1  0  0  0  0
 18 43  1  0  0  0  0
 18 44  1  0  0  0  0
 19 20  1  0  0  0  0
 19 21  1  0  0  0  0
 20 45  1  0  0  0  0
 20 46  1  0  0  0  0
 20 47  1  0  0  0  0
 21 22  1  0  0  0  0
 21 48  1  0  0  0  0
 21 49  1  0  0  0  0
 22 50  1  0  0  0  0
 22 51  1  0  0  0  0
 23 52  1  0  0  0  0
M  END
> <s_m_source_file>
AV-unprocessed.smi

> <i_m_source_file_index>
2276

> <i_lp_mmshare_version>
43012

> <i_f3d_flags>
0

> <s_epik_input>
W0NIM11jMVtjSF1jKFtDSDNdKW5jKFtjSF0xKVtOSF1DKD1PKVtOSF1bQ0gyXVtDQEhdKFtDSDNdKVtDSDJdTjJbQ0gyXVtDSDJdTihbQ0gzXSlbQ0gyXVtDSDJdMg==

> <s_epik_cmdline>
J2VwaWtfcHl0aG9uJywgJy1waCcsICc3LjAnLCAnLXRuJywgJzgnLCAnLW1hJywgJzIwMCcsICctbWV0YWxfYmluZGluZycsICctaW1hZScsICc8aW5maWxlLm1hZT4nLCAnLW9tYWUnLCAnPG91dGZpbGUubWFlPic=

> <r_epik_Ionization_Penalty>
3.46991

> <r_epik_Ionization_Penalty_Charging>
0

> <r_epik_Ionization_Penalty_Neutral>
3.46991

> <r_epik_State_Penalty>
2.28006

> <r_epik_Charging_Adjusted_Penalty>
2.28006

> <i_epik_Tot_Q>
0

> <i_epik_Tot_abs_Q>
0

> <r_epik_Metal_State_Penalty>
2.28005

> <b_epik_Metal_Only>
0

> <s_lp_Force_Field>
OPLS_2005

> <r_lp_Energy>
40.6997

> <b_lp_Chiralities_Consistent>
1

> <s_lp_Variant>
AV-unprocessed.smi:2276-6

> <Gold.Version>
5.8.1

> <Gold.Id.Protein>
6NUR|6NUR_protein|mol2

> <Gold.PLP.Fitness>
55.7158

> <Gold.PLP.PLP>
-51.1978

> <Gold.PLP.part.hbond>
-2.0000

> <Gold.PLP.part.metal>
0.0000

> <Gold.PLP.part.buried>
-4.2436

> <Gold.PLP.part.nonpolar>
-44.8677

> <Gold.PLP.part.repulsive>
0.5691

> <Gold.PLP.ligand.clash>
0.0000

> <Gold.PLP.ligand.torsion>
0.7539

> <Gold.PLP.Chemscore.Hbond>
1.9760

> <Gold.PLP.Chemscore.CHOScore>
0.0000

> <Gold.PLP.Chemscore.Metal>
0.0000

> <Gold.Chemscore.Hbonds>
donor molecule, donor type, donor heavy atom, donor atom, acceptor molecule, acceptor atom, score
      L1  H     8    31       P1  8028  0.99
      L1  H    11    32       P1  8028  1.00

> <Gold.PLP.Chemscore.Internal.Correction>
0.0979

> <Gold.Rescore>
     Score         DG    S(hbond)    S(metal)    S(lipo)     H(rot)  DE(clash)    DE(int)     intcor
     20.45     -22.86       1.95        0.00     127.40       1.57       0.35       2.06       ----

> <Gold.Chemscore.Fitness>
20.4466

> <Gold.Chemscore.DG>
-22.8596

> <Gold.Chemscore.ZeroCoef>
-5.4800

> <Gold.Chemscore.Hbond>
1.9451

> <Gold.Chemscore.Metal>
0.0000

> <Gold.Chemscore.Lipo>
127.4015

> <Gold.Chemscore.Internal_Hbond>
0.0000

> <Gold.Chemscore.DEClash>
0.3536

> <Gold.Chemscore.DEInternal>
2.0594

> <Gold.Chemscore.Rot>
1.5715

> <Gold.Chemscore.Internal.Correction>
   9.000000E+99

> <Gold.Chemscore.Hbonds>
donor molecule, donor type, donor heavy atom, donor atom, acceptor molecule, acceptor atom, score
      L1  H     8    31       P1  8028  0.93
      L1  H    11    32       P1  8028  0.95

> <Gold.Chemscore.Hbond.Weighted>
-6.4967

> <Gold.Chemscore.Metal.Weighted>
-0.0000

> <Gold.Chemscore.Lipo.Weighted>
-14.9060

> <Gold.Chemscore.Internal_Hbond.Weighted>
0.0000

> <Gold.Chemscore.DEClash.Weighted>
0.3536

> <Gold.Chemscore.DEInternal.Weighted>
2.0594

> <Gold.Chemscore.Rot.Weighted>
4.0231

> <Gold.Chemscore.Internal.Correction.Weighted>
   9.000000E+99

> <Gold.Protein.RotatedTorsions>
[ 6907 6896 6895 6894 ] final  -79.38 input  -60.11 | X-H torsion
[ 7974 7965 7964 7962 ] final  -66.21 input  175.53 | X-H torsion
[ 8008 7997 7996 7995 ] final   17.53 input   59.86 | X-H torsion
[ 10167 10162 10161 10158 ] final  -21.15 input  -65.29 | X-H torsion
[ 10718 10713 10712 10709 ] final  -28.61 input   66.30 | X-H torsion
[ 10763 10752 10751 10750 ] final   67.79 input  -60.55 | X-H torsion
[ 11005 11000 10999 10996 ] final  146.74 input  -57.11 | X-H torsion

> <Gold.Protein.ActiveResidues>
 VAL166  LYS551  ARG553  GLY616  TRP617  ASP618  TYR619  PRO620  LYS621  CYS622 
 ASP623  PHE694  ASN695  SER759  ASP760  ASP761  ALA762  ILE779  LEU786  VAL792 
 PHE793  MET794  SER795  GLU796  ALA797  LYS798  CYS799  TRP800  GLU811  SER814 

> <Gold.Protein.RotatedAtoms>
  150.6951  134.4130  159.5170 H   0  0  0  0  0  0  0  0  0  0  0  0  # atno 6907 bound_to 6896
  152.1885  134.8690  160.0529 H   0  0  0  0  0  0  0  0  0  0  0  0  # atno 6908 bound_to 6896
  151.9654  133.3673  159.4088 H   0  0  0  0  0  0  0  0  0  0  0  0  # atno 6909 bound_to 6896
  145.7446  140.8937  143.0512 H   0  0  0  0  0  0  0  0  0  0  0  0  # atno 7974 bound_to 7965
  154.8927  140.2989  155.5361 H   0  0  0  0  0  0  0  0  0  0  0  0  # atno 8008 bound_to 7997
  156.3020  140.2421  156.3879 H   0  0  0  0  0  0  0  0  0  0  0  0  # atno 8009 bound_to 7997
  154.8602  140.0405  157.1649 H   0  0  0  0  0  0  0  0  0  0  0  0  # atno 8010 bound_to 7997
  140.7280  143.4654  151.0320 H   0  0  0  0  0  0  0  0  0  0  0  0  # atno 10167 bound_to 10162
  156.4231  130.4430  149.7170 H   0  0  0  0  0  0  0  0  0  0  0  0  # atno 10718 bound_to 10713
  153.0203  135.5271  154.7033 H   0  0  0  0  0  0  0  0  0  0  0  0  # atno 10763 bound_to 10752
  154.6136  135.2881  155.0407 H   0  0  0  0  0  0  0  0  0  0  0  0  # atno 10764 bound_to 10752
  154.1420  135.6576  153.4996 H   0  0  0  0  0  0  0  0  0  0  0  0  # atno 10765 bound_to 10752
  140.0818  134.9092  157.1513 H   0  0  0  0  0  0  0  0  0  0  0  0  # atno 11005 bound_to 11000
  144.6863  139.9507  143.7478 LP  0  0  0  0  0  0  0  0  0  0  0  0  # atno 17320 bound_to 7965
  146.0415  139.3426  143.0694 LP  0  0  0  0  0  0  0  0  0  0  0  0  # atno 17321 bound_to 7965
  139.8342  143.7650  152.3180 LP  0  0  0  0  0  0  0  0  0  0  0  0  # atno 17342 bound_to 10162
  139.7776  144.7455  151.0134 LP  0  0  0  0  0  0  0  0  0  0  0  0  # atno 17343 bound_to 10162
  156.4103  130.7718  151.2731 LP  0  0  0  0  0  0  0  0  0  0  0  0  # atno 17370 bound_to 10713
  157.7508  131.0213  150.3746 LP  0  0  0  0  0  0  0  0  0  0  0  0  # atno 17371 bound_to 10713
  140.3477  134.2633  155.7203 LP  0  0  0  0  0  0  0  0  0  0  0  0  # atno 17394 bound_to 11000
  141.2049  133.7874  157.0261 LP  0  0  0  0  0  0  0  0  0  0  0  0  # atno 17395 bound_to 11000

$$$$
