#       Name:                AV-unprocessed.smi:99
#       Creating user name   scv26
#       Creation time:       Thu Mar 26 17:36:09 2020


#       File generated by GOLD software.
#

@<TRIPOS>MOLECULE
AV-unprocessed.smi:99
    65    68     1
SMALL
NO_CHARGES


@<TRIPOS>ATOM
      1 ****        -2.2850  -0.6499   0.5998 O.2            1 S1                 0.0000
      2 ****        -1.9748   0.4464   1.0710 C.2            1 S1                 0.0000
      3 ****        -1.0528   0.6119   2.0447 O.3            1 S1                 0.0000
      4 ****        -0.3212  -0.4907   2.5706 C.3            1 S1                 0.0000
      5 ****         1.0873  -0.5765   1.9573 C.3            1 S1                 0.0000
      6 ****         1.8132   0.6249   2.2069 O.3            1 S1                 0.0000
      7 ****         2.5521   1.0102   1.0812 C.3            1 S1                 0.0000
      8 ****         1.9680   2.3238   0.5759 N.am           1 S1                 0.0000
      9 ****         1.1093   2.3998  -0.5131 C.2            1 S1                 0.0000
     10 ****         0.5445   3.5647  -0.8907 C.2            1 S1                 0.0000
     11 ****         0.8239   4.7772  -0.1307 C.2            1 S1                 0.0000
     12 ****         0.3106   5.8359  -0.4874 O.2            1 S1                 0.0000
     13 ****         1.6436   4.6776   0.9535 N.pl3          1 S1                -1.0000
     14 ****         2.2110   3.4987   1.3430 C.2            1 S1                 0.0000
     15 ****         2.9310   3.4031   2.3373 O.2            1 S1                 0.0000
     16 ****         2.4877  -0.1532   0.0750 C.3            1 S1                 0.0000
     17 ****         3.5711  -1.0383   0.2921 O.3            1 S1                 0.0000
     18 ****         1.1493  -0.7795   0.4454 C.3            1 S1                 0.0000
     19 ****         1.0097  -2.1331   0.0322 O.3            1 S1                 0.0000
     20 ****         0.5519  -2.4285  -1.2033 C.2            1 S1                 0.0000
     21 ****         0.2719  -1.5779  -2.0508 O.2            1 S1                 0.0000
     22 ****         0.4148  -3.8950  -1.4358 C.ar           1 S1                 0.0000
     23 ****        -0.0696  -4.3567  -2.6822 C.ar           1 S1                 0.0000
     24 ****        -0.2164  -5.7356  -2.9287 C.ar           1 S1                 0.0000
     25 ****         0.1199  -6.6698  -1.9319 C.ar           1 S1                 0.0000
     26 ****         0.6039  -6.2236  -0.6884 C.ar           1 S1                 0.0000
     27 ****         0.7512  -4.8449  -0.4399 C.ar           1 S1                 0.0000
     28 ****        -2.5563   1.7360   0.6013 C.ar           1 S1                 0.0000
     29 ****        -3.4731   1.7306  -0.4753 C.ar           1 S1                 0.0000
     30 ****        -4.0249   2.9351  -0.9532 C.ar           1 S1                 0.0000
     31 ****        -3.6668   4.1596  -0.3597 C.ar           1 S1                 0.0000
     32 ****        -2.7584   4.1777   0.7143 C.ar           1 S1                 0.0000
     33 ****        -2.2057   2.9743   1.1939 C.ar           1 S1                 0.0000
     34 ****        -0.2329  -0.3472   3.6476 H              1 S1                 0.0000
     35 ****        -0.8541  -1.4324   2.4325 H              1 S1                 0.0000
     36 ****         1.6390  -1.3831   2.4423 H              1 S1                 0.0000
     37 ****         3.5833   1.2518   1.3454 H              1 S1                 0.0000
     38 ****         0.8619   1.5288  -1.0960 H              1 S1                 0.0000
     39 ****        -0.1222   3.5982  -1.7398 H              1 S1                 0.0000
     40 ****         2.5489   0.1877  -0.9579 H              1 S1                 0.0000
     41 ****         4.3764  -0.5653   0.1480 H              1 S1                 0.0000
     42 ****         0.3577  -0.1863  -0.0048 H              1 S1                 0.0000
     43 ****        -0.3360  -3.6584  -3.4626 H              1 S1                 0.0000
     44 ****        -0.5885  -6.0762  -3.8837 H              1 S1                 0.0000
     45 ****         0.0064  -7.7271  -2.1210 H              1 S1                 0.0000
     46 ****         0.8621  -6.9399   0.0777 H              1 S1                 0.0000
     47 ****         1.1241  -4.5364   0.5259 H              1 S1                 0.0000
     48 ****        -3.7577   0.8033  -0.9513 H              1 S1                 0.0000
     49 ****        -4.7213   2.9188  -1.7785 H              1 S1                 0.0000
     50 ****        -4.0861   5.0840  -0.7289 H              1 S1                 0.0000
     51 ****        -2.4772   5.1170   1.1672 H              1 S1                 0.0000
     52 ****        -1.5031   3.0261   2.0127 H              1 S1                 0.0000
     53 ****        -1.8456  -1.4820   0.9382 LP             1 S1                 0.0000
     54 ****        -2.9761  -0.7069  -0.1207 LP             1 S1                 0.0000
     55 ****         2.4386   0.4756   2.9728 LP             1 S1                 0.0000
     56 ****         1.1690   1.3535   2.4399 LP             1 S1                 0.0000
     57 ****        -0.2884   5.8565  -1.2879 LP             1 S1                 0.0000
     58 ****         0.4920   6.6765   0.0230 LP             1 S1                 0.0000
     59 ****         1.8373   5.5019   1.4855 LP             1 S1                 0.0000
     60 ****         3.3260   2.5186   2.5854 LP             1 S1                 0.0000
     61 ****         3.1207   4.2100   2.8967 LP             1 S1                 0.0000
     62 ****         3.5122  -1.8068  -0.3450 LP             1 S1                 0.0000
     63 ****         3.5442  -1.3810   1.2312 LP             1 S1                 0.0000
     64 ****         0.3801  -0.6065  -1.8391 LP             1 S1                 0.0000
     65 ****        -0.0634  -1.8593  -2.9499 LP             1 S1                 0.0000
@<TRIPOS>BOND
    1    1    2 2     
    2    2    3 1     
    3    2   28 1     
    4    3    4 1     
    5    4    5 1     
    6    4   34 1     
    7    4   35 1     
    8    5   18 1     
    9    5    6 1     
   10    5   36 1     
   11    6    7 1     
   12    7    8 1     
   13    7   16 1     
   14    7   37 1     
   15    8   14 am    
   16    8    9 1     
   17    9   10 2     
   18    9   38 1     
   19   10   11 1     
   20   10   39 1     
   21   11   12 2     
   22   11   13 1     
   23   13   14 1     
   24   14   15 2     
   25   16   17 1     
   26   16   18 1     
   27   16   40 1     
   28   17   41 1     
   29   18   19 1     
   30   18   42 1     
   31   19   20 1     
   32   20   21 2     
   33   20   22 1     
   34   22   27 ar    
   35   22   23 ar    
   36   23   24 ar    
   37   23   43 1     
   38   24   25 ar    
   39   24   44 1     
   40   25   26 ar    
   41   25   45 1     
   42   26   27 ar    
   43   26   46 1     
   44   27   47 1     
   45   28   33 ar    
   46   28   29 ar    
   47   29   30 ar    
   48   29   48 1     
   49   30   31 ar    
   50   30   49 1     
   51   31   32 ar    
   52   31   50 1     
   53   32   33 ar    
   54   32   51 1     
   55   33   52 1     
   56    1   53 1     
   57    1   54 1     
   58    6   55 1     
   59    6   56 1     
   60   12   57 1     
   61   12   58 1     
   62   13   59 1     
   63   15   60 1     
   64   15   61 1     
   65   17   62 1     
   66   17   63 1     
   67   21   64 1     
   68   21   65 1     
@<TRIPOS>SUBSTRUCTURE
      1 S1             1
@<TRIPOS>SET
LONE_PAIRS      STATIC     ATOMS    <user>   **** ""
13 53 54 55 56 57 58 59 60 61 62 63 64 65
DONOR_HYDROGENS      STATIC     ATOMS    <user>   **** ""
1 41
ATOM$BLUE        STATIC     ATOMS    COLORGROUP SYSTEM
13 53 54 55 56 57 58 59 60 61 62 63 64 65
ATOM$RED        STATIC     ATOMS    COLORGROUP SYSTEM
1 41
