AV-unprocessed.smi:3263|AV-procd|sdf|12487|dock1
  -GOLD-   2272018383D 1   1.00000     0.00000
 Structure written by MMmdl.
 41 43  0  0  0  0  0  0  0  0  1 V2000
  150.7369  140.5810  155.1911 O   0  0  0  0  0  0  0  0  0  0  0  0
  150.1430  141.3487  155.9491 C   0  0  0  0  0  0  0  0  0  0  0  0
  150.6400  141.5740  157.3818 C   0  0  0  0  0  0  0  0  0  0  0  0
  150.9832  143.0467  157.7030 C   0  0  1  0  0  0  0  0  0  0  0  0
  150.1330  143.6631  158.8404 C   0  0  0  0  0  0  0  0  0  0  0  0
  151.1935  144.1783  159.8295 C   0  0  2  0  0  0  0  0  0  0  0  0
  151.9325  145.3809  159.2134 C   0  0  0  0  0  0  0  0  0  0  0  0
  152.8068  144.7222  158.1295 C   0  0  0  0  0  0  0  0  0  0  0  0
  152.4208  143.2345  158.2404 C   0  0  1  0  0  0  0  0  0  0  0  0
  152.2470  143.0813  159.7487 C   0  0  0  0  0  0  0  0  0  0  0  0
  149.0346  142.0198  155.5976 N   0  0  0  0  0  0  0  0  0  0  0  0
  148.3692  141.9403  154.2992 C   0  0  0  0  0  0  0  0  0  0  0  0
  146.8898  141.5240  154.4179 C   0  0  0  0  0  0  0  0  0  0  0  0
  145.9192  142.6927  154.3877 C   0  0  0  0  0  0  0  0  0  0  0  0
  145.8729  143.5648  153.2784 C   0  0  0  0  0  0  0  0  0  0  0  0
  144.9740  144.6482  153.3141 C   0  0  0  0  0  0  0  0  0  0  0  0
  144.1586  144.8157  154.4498 C   0  0  0  0  0  0  0  0  0  0  0  0
  144.2780  143.8875  155.5032 C   0  0  0  0  0  0  0  0  0  0  0  0
  145.1351  142.8443  155.4787 N   0  0  0  0  0  0  0  0  0  0  0  0
  149.8903  141.2029  158.0817 H   0  0  0  0  0  0  0  0  0  0  0  0
  151.5268  140.9555  157.5243 H   0  0  0  0  0  0  0  0  0  0  0  0
  150.8658  143.6332  156.7900 H   0  0  0  0  0  0  0  0  0  0  0  0
  149.4769  144.4574  158.4824 H   0  0  0  0  0  0  0  0  0  0  0  0
  149.5065  142.9115  159.3230 H   0  0  0  0  0  0  0  0  0  0  0  0
  150.8019  144.3693  160.8289 H   0  0  0  0  0  0  0  0  0  0  0  0
  151.2441  146.1194  158.8004 H   0  0  0  0  0  0  0  0  0  0  0  0
  152.5544  145.8804  159.9573 H   0  0  0  0  0  0  0  0  0  0  0  0
  152.6205  145.1314  157.1359 H   0  0  0  0  0  0  0  0  0  0  0  0
  153.8646  144.8646  158.3538 H   0  0  0  0  0  0  0  0  0  0  0  0
  153.1542  142.5649  157.7901 H   0  0  0  0  0  0  0  0  0  0  0  0
  153.1523  143.3088  160.3145 H   0  0  0  0  0  0  0  0  0  0  0  0
  151.8759  142.1006  160.0505 H   0  0  0  0  0  0  0  0  0  0  0  0
  148.6143  142.6276  156.2859 H   0  0  0  0  0  0  0  0  0  0  0  0
  148.4305  142.9236  153.8325 H   0  0  0  0  0  0  0  0  0  0  0  0
  148.9011  141.2575  153.6345 H   0  0  0  0  0  0  0  0  0  0  0  0
  146.6386  140.8306  153.6145 H   0  0  0  0  0  0  0  0  0  0  0  0
  146.7414  140.9725  155.3470 H   0  0  0  0  0  0  0  0  0  0  0  0
  146.5182  143.4154  152.4253 H   0  0  0  0  0  0  0  0  0  0  0  0
  144.9134  145.3394  152.4866 H   0  0  0  0  0  0  0  0  0  0  0  0
  143.4592  145.6362  154.5126 H   0  0  0  0  0  0  0  0  0  0  0  0
  143.6682  143.9849  156.3892 H   0  0  0  0  0  0  0  0  0  0  0  0
  1  2  2  0  0  0  0
  2  3  1  0  0  0  0
  2 11  1  0  0  0  0
  3  4  1  0  0  0  0
  3 20  1  0  0  0  0
  3 21  1  0  0  0  0
  4  9  1  0  0  0  0
  4  5  1  0  0  0  0
  4 22  1  0  0  0  0
  5  6  1  0  0  0  0
  5 23  1  0  0  0  0
  5 24  1  0  0  0  0
  6 10  1  0  0  0  0
  6  7  1  0  0  0  0
  6 25  1  0  0  0  0
  7  8  1  0  0  0  0
  7 26  1  0  0  0  0
  7 27  1  0  0  0  0
  8  9  1  0  0  0  0
  8 28  1  0  0  0  0
  8 29  1  0  0  0  0
  9 10  1  0  0  0  0
  9 30  1  0  0  0  0
 10 31  1  0  0  0  0
 10 32  1  0  0  0  0
 11 12  1  0  0  0  0
 11 33  1  0  0  0  0
 12 13  1  0  0  0  0
 12 34  1  0  0  0  0
 12 35  1  0  0  0  0
 13 14  1  0  0  0  0
 13 36  1  0  0  0  0
 13 37  1  0  0  0  0
 14 19  1  0  0  0  0
 14 15  2  0  0  0  0
 15 16  1  0  0  0  0
 15 38  1  0  0  0  0
 16 17  2  0  0  0  0
 16 39  1  0  0  0  0
 17 18  1  0  0  0  0
 17 40  1  0  0  0  0
 18 19  2  0  0  0  0
 18 41  1  0  0  0  0
M  END
> <s_m_source_file>
AV-unprocessed.smi

> <i_m_source_file_index>
3263

> <i_lp_mmshare_version>
43012

> <i_f3d_flags>
0

> <s_epik_input>
W0NIMl0xW0NIMl1bQ0BASF0oW0NIMl0yKVtDQEBIXShbQ0gyXVtDQEhdMTIpW0NIMl1DKD1PKVtOSF1bQ0gyXVtDSDJdYzNbY0hdW2NIXVtjSF1bY0hdbjM=

> <s_epik_cmdline>
J2VwaWtfcHl0aG9uJywgJy1waCcsICc3LjAnLCAnLXRuJywgJzgnLCAnLW1hJywgJzIwMCcsICctbWV0YWxfYmluZGluZycsICctaW1hZScsICc8aW5maWxlLm1hZT4nLCAnLW9tYWUnLCAnPG91dGZpbGUubWFlPic=

> <r_epik_Ionization_Penalty>
0.0273541

> <r_epik_Ionization_Penalty_Charging>
0

> <r_epik_Ionization_Penalty_Neutral>
0.0273541

> <r_epik_State_Penalty>
0.0223838

> <r_epik_Charging_Adjusted_Penalty>
0.0223838

> <i_epik_Tot_Q>
0

> <i_epik_Tot_abs_Q>
0

> <r_epik_Metal_State_Penalty>
0.0213927

> <b_epik_Metal_Only>
0

> <s_lp_Force_Field>
OPLS_2005

> <r_lp_Energy>
47.5771

> <b_lp_Chiralities_Consistent>
1

> <s_lp_Variant>
AV-unprocessed.smi:3263-2

> <Gold.Version>
5.8.1

> <Gold.Id.Protein>
6NUR|6NUR_protein|mol2

> <Gold.PLP.Fitness>
49.2049

> <Gold.PLP.PLP>
-47.8288

> <Gold.PLP.part.hbond>
-2.0000

> <Gold.PLP.part.metal>
0.0000

> <Gold.PLP.part.buried>
-5.4678

> <Gold.PLP.part.nonpolar>
-41.0778

> <Gold.PLP.part.repulsive>
0.3571

> <Gold.PLP.ligand.clash>
0.0000

> <Gold.PLP.ligand.torsion>
1.0099

> <Gold.PLP.Chemscore.Hbond>
1.1044

> <Gold.PLP.Chemscore.CHOScore>
0.0000

> <Gold.PLP.Chemscore.Metal>
0.0000

> <Gold.Chemscore.Hbonds>
donor molecule, donor type, donor heavy atom, donor atom, acceptor molecule, acceptor atom, score
      L1  H    11    33       P1  8028  0.11
      P1  H  7989  7998       L1     1  0.96

> <Gold.PLP.Chemscore.Internal.Correction>
0.0825

> <Gold.Rescore>
     Score         DG    S(hbond)    S(metal)    S(lipo)     H(rot)  DE(clash)    DE(int)     intcor
     18.87     -20.70       1.07        0.00     131.30       1.46       0.82       1.00       ----

> <Gold.Chemscore.Fitness>
18.8735

> <Gold.Chemscore.DG>
-20.7008

> <Gold.Chemscore.ZeroCoef>
-5.4800

> <Gold.Chemscore.Hbond>
1.0735

> <Gold.Chemscore.Metal>
0.0000

> <Gold.Chemscore.Lipo>
131.2950

> <Gold.Chemscore.Internal_Hbond>
0.0000

> <Gold.Chemscore.DEClash>
0.8226

> <Gold.Chemscore.DEInternal>
1.0048

> <Gold.Chemscore.Rot>
1.4555

> <Gold.Chemscore.Internal.Correction>
   9.000000E+99

> <Gold.Chemscore.Hbonds>
donor molecule, donor type, donor heavy atom, donor atom, acceptor molecule, acceptor atom, score
      L1  H    11    33       P1  8028  0.12
      P1  H  7989  7998       L1     1  0.92

> <Gold.Chemscore.Hbond.Weighted>
-3.5853

> <Gold.Chemscore.Metal.Weighted>
-0.0000

> <Gold.Chemscore.Lipo.Weighted>
-15.3615

> <Gold.Chemscore.Internal_Hbond.Weighted>
0.0000

> <Gold.Chemscore.DEClash.Weighted>
0.8226

> <Gold.Chemscore.DEInternal.Weighted>
1.0048

> <Gold.Chemscore.Rot.Weighted>
3.7260

> <Gold.Chemscore.Internal.Correction.Weighted>
   9.000000E+99

> <Gold.Protein.RotatedTorsions>
[ 6907 6896 6895 6894 ] final   48.91 input  -60.11 | X-H torsion
[ 7974 7965 7964 7962 ] final   78.74 input  175.53 | X-H torsion
[ 8008 7997 7996 7995 ] final   62.95 input   59.86 | X-H torsion
[ 10167 10162 10161 10158 ] final -175.33 input  -65.29 | X-H torsion
[ 10718 10713 10712 10709 ] final  -91.23 input   66.30 | X-H torsion
[ 10763 10752 10751 10750 ] final -142.95 input  -60.55 | X-H torsion
[ 11005 11000 10999 10996 ] final   92.72 input  -57.11 | X-H torsion

> <Gold.Protein.ActiveResidues>
 VAL166  LYS551  ARG553  GLY616  TRP617  ASP618  TYR619  PRO620  LYS621  CYS622 
 ASP623  PHE694  ASN695  SER759  ASP760  ASP761  ALA762  ILE779  LEU786  VAL792 
 PHE793  MET794  SER795  GLU796  ALA797  LYS798  CYS799  TRP800  GLU811  SER814 

> <Gold.Protein.RotatedAtoms>
  152.2849  134.7787  160.0389 H   0  0  0  0  0  0  0  0  0  0  0  0  # atno 6907 bound_to 6896
  151.8354  133.3410  159.3634 H   0  0  0  0  0  0  0  0  0  0  0  0  # atno 6908 bound_to 6896
  150.7205  134.5371  159.5773 H   0  0  0  0  0  0  0  0  0  0  0  0  # atno 6909 bound_to 6896
  145.6733  139.2503  143.1856 H   0  0  0  0  0  0  0  0  0  0  0  0  # atno 7974 bound_to 7965
  155.6224  140.3496  155.4656 H   0  0  0  0  0  0  0  0  0  0  0  0  # atno 8008 bound_to 7997
  156.0068  140.1225  157.0517 H   0  0  0  0  0  0  0  0  0  0  0  0  # atno 8009 bound_to 7997
  154.4267  140.1089  156.5760 H   0  0  0  0  0  0  0  0  0  0  0  0  # atno 8010 bound_to 7997
  139.5586  144.1925  152.1202 H   0  0  0  0  0  0  0  0  0  0  0  0  # atno 10167 bound_to 10162
  155.9992  130.4940  150.5443 H   0  0  0  0  0  0  0  0  0  0  0  0  # atno 10718 bound_to 10713
  154.8489  135.3481  154.6110 H   0  0  0  0  0  0  0  0  0  0  0  0  # atno 10763 bound_to 10752
  153.6719  135.6984  153.5149 H   0  0  0  0  0  0  0  0  0  0  0  0  # atno 10764 bound_to 10752
  153.2736  135.4285  155.0968 H   0  0  0  0  0  0  0  0  0  0  0  0  # atno 10765 bound_to 10752
  139.8819  134.8749  156.3614 H   0  0  0  0  0  0  0  0  0  0  0  0  # atno 11005 bound_to 11000
  146.1027  140.7524  142.9541 LP  0  0  0  0  0  0  0  0  0  0  0  0  # atno 17320 bound_to 7965
  144.7050  140.3813  143.7125 LP  0  0  0  0  0  0  0  0  0  0  0  0  # atno 17321 bound_to 7965
  140.1435  144.5181  150.6730 LP  0  0  0  0  0  0  0  0  0  0  0  0  # atno 17342 bound_to 10162
  140.6863  143.2352  151.5251 LP  0  0  0  0  0  0  0  0  0  0  0  0  # atno 17343 bound_to 10162
  157.3375  131.0711  151.1813 LP  0  0  0  0  0  0  0  0  0  0  0  0  # atno 17370 bound_to 10713
  157.2673  130.6687  149.6003 LP  0  0  0  0  0  0  0  0  0  0  0  0  # atno 17371 bound_to 10713
  140.9527  133.7440  156.0294 LP  0  0  0  0  0  0  0  0  0  0  0  0  # atno 17394 bound_to 11000
  140.8086  134.3426  157.5418 LP  0  0  0  0  0  0  0  0  0  0  0  0  # atno 17395 bound_to 11000

$$$$
