AV-unprocessed.smi:3287|AV-procd|sdf|12595|dock10
  -GOLD-   2272018523D 1   1.00000     0.00000
 Structure written by MMmdl.
 43 44  0  0  0  0  0  0  0  0  2 V2000
  152.1055  143.1819  161.3946 C   0  0  0  0  0  0  0  0  0  0  0  0
  152.8518  143.5252  160.0895 C   0  0  1  0  0  0  0  0  0  0  0  0
  153.1328  142.2651  159.2453 C   0  0  0  0  0  0  0  0  0  0  0  0
  151.8633  141.7188  158.5699 C   0  0  0  0  0  0  0  0  0  0  0  0
  151.1765  142.7909  157.7054 C   0  0  1  0  0  0  0  0  0  0  0  0
  149.9512  142.2311  157.0924 N   0  3  0  0  0  0  0  0  0  0  0  0
  150.1734  141.1600  156.0965 C   0  0  0  0  0  0  0  0  0  0  0  0
  149.2433  141.3167  154.8811 C   0  0  1  0  0  0  0  0  0  0  0  0
  149.7352  140.5163  153.8235 O   0  0  0  0  0  0  0  0  0  0  0  0
  147.8096  140.9591  155.2410 C   0  0  0  0  0  0  0  0  0  0  0  0
  147.1068  141.6687  156.2392 C   0  0  0  0  0  0  0  0  0  0  0  0
  145.7774  141.2962  156.5216 C   0  0  0  0  0  0  0  0  0  0  0  0
  145.1369  140.2944  155.8826 N   0  0  0  0  0  0  0  0  0  0  0  0
  145.8122  139.6208  154.9273 C   0  0  0  0  0  0  0  0  0  0  0  0
  147.1437  139.9127  154.5689 C   0  0  0  0  0  0  0  0  0  0  0  0
  150.8763  144.0505  158.5463 C   0  0  0  0  0  0  0  0  0  0  0  0
  152.1499  144.6003  159.2210 C   0  0  1  0  0  0  0  0  0  0  0  0
  151.8751  145.9106  159.9772 C   0  0  0  0  0  0  0  0  0  0  0  0
  151.0910  142.8304  161.2102 H   0  0  0  0  0  0  0  0  0  0  0  0
  152.0415  144.0450  162.0567 H   0  0  0  0  0  0  0  0  0  0  0  0
  152.6279  142.4000  161.9462 H   0  0  0  0  0  0  0  0  0  0  0  0
  153.8204  143.9280  160.3890 H   0  0  0  0  0  0  0  0  0  0  0  0
  153.8672  142.5065  158.4758 H   0  0  0  0  0  0  0  0  0  0  0  0
  153.5897  141.4905  159.8623 H   0  0  0  0  0  0  0  0  0  0  0  0
  152.1244  140.8570  157.9543 H   0  0  0  0  0  0  0  0  0  0  0  0
  151.1716  141.3514  159.3289 H   0  0  0  0  0  0  0  0  0  0  0  0
  151.8621  143.0592  156.8999 H   0  0  0  0  0  0  0  0  0  0  0  0
  149.3904  141.8392  157.8354 H   0  0  0  0  0  0  0  0  0  0  0  0
  151.2143  141.1592  155.7722 H   0  0  0  0  0  0  0  0  0  0  0  0
  149.9859  140.1968  156.5733 H   0  0  0  0  0  0  0  0  0  0  0  0
  149.2646  142.3534  154.5416 H   0  0  0  0  0  0  0  0  0  0  0  0
  149.3391  139.6599  153.8871 H   0  0  0  0  0  0  0  0  0  0  0  0
  147.5704  142.4817  156.7789 H   0  0  0  0  0  0  0  0  0  0  0  0
  145.2127  141.8193  157.2791 H   0  0  0  0  0  0  0  0  0  0  0  0
  145.2746  138.8263  154.4314 H   0  0  0  0  0  0  0  0  0  0  0  0
  147.6363  139.3431  153.7946 H   0  0  0  0  0  0  0  0  0  0  0  0
  150.4525  144.8306  157.9143 H   0  0  0  0  0  0  0  0  0  0  0  0
  150.1200  143.8255  159.2993 H   0  0  0  0  0  0  0  0  0  0  0  0
  152.8453  144.8555  158.4195 H   0  0  0  0  0  0  0  0  0  0  0  0
  151.1191  145.7809  160.7515 H   0  0  0  0  0  0  0  0  0  0  0  0
  151.5153  146.6837  159.2978 H   0  0  0  0  0  0  0  0  0  0  0  0
  152.7812  146.2887  160.4515 H   0  0  0  0  0  0  0  0  0  0  0  0
  149.4268  142.9780  156.6591 H   0  0  0  0  0  0  0  0  0  0  0  0
  1  2  1  0  0  0  0
  1 19  1  0  0  0  0
  1 20  1  0  0  0  0
  1 21  1  0  0  0  0
  2 17  1  0  0  0  0
  2  3  1  0  0  0  0
  2 22  1  0  0  0  0
  3  4  1  0  0  0  0
  3 23  1  0  0  0  0
  3 24  1  0  0  0  0
  4  5  1  0  0  0  0
  4 25  1  0  0  0  0
  4 26  1  0  0  0  0
  5  6  1  0  0  0  0
  5 16  1  0  0  0  0
  5 27  1  0  0  0  0
  6  7  1  0  0  0  0
  6 28  1  0  0  0  0
  6 43  1  0  0  0  0
  7  8  1  0  0  0  0
  7 29  1  0  0  0  0
  7 30  1  0  0  0  0
  8  9  1  0  0  0  0
  8 10  1  0  0  0  0
  8 31  1  0  0  0  0
  9 32  1  0  0  0  0
 10 15  1  0  0  0  0
 10 11  2  0  0  0  0
 11 12  1  0  0  0  0
 11 33  1  0  0  0  0
 12 13  2  0  0  0  0
 12 34  1  0  0  0  0
 13 14  1  0  0  0  0
 14 15  2  0  0  0  0
 14 35  1  0  0  0  0
 15 36  1  0  0  0  0
 16 17  1  0  0  0  0
 16 37  1  0  0  0  0
 16 38  1  0  0  0  0
 17 18  1  0  0  0  0
 17 39  1  0  0  0  0
 18 40  1  0  0  0  0
 18 41  1  0  0  0  0
 18 42  1  0  0  0  0
M  CHG  1   6   1
M  END
> <s_m_source_file>
AV-unprocessed.smi

> <i_m_source_file_index>
3287

> <i_lp_mmshare_version>
43012

> <i_f3d_flags>
0

> <s_epik_input>
W0NIM11bQ0BASF0xW0NIMl1bQ0gyXVtDQEhdKFtDSDJdW0NASF0xW0NIM10pW05IXVtDSDJdW0NASF0oW09IXSljMltjSF1bY0hdbltjSF1bY0hdMg==

> <s_epik_cmdline>
J2VwaWtfcHl0aG9uJywgJy1waCcsICc3LjAnLCAnLXRuJywgJzgnLCAnLW1hJywgJzIwMCcsICctbWV0YWxfYmluZGluZycsICctaW1hZScsICc8aW5maWxlLm1hZT4nLCAnLW9tYWUnLCAnPG91dGZpbGUubWFlPic=

> <r_lp_tautomer_probability>
1

> <r_epik_Ionization_Penalty>
0.00537262

> <r_epik_Ionization_Penalty_Charging>
0.00321624

> <r_epik_Ionization_Penalty_Neutral>
0.00215638

> <r_epik_State_Penalty>
-0

> <r_epik_Charging_Adjusted_Penalty>
0.00321624

> <i_epik_Tot_Q>
1

> <i_epik_Tot_abs_Q>
1

> <r_epik_Metal_State_Penalty>
-0

> <b_epik_Metal_Only>
0

> <s_lp_Force_Field>
OPLS_2005

> <r_lp_Energy>
17.7653

> <b_lp_Chiralities_Consistent>
1

> <s_lp_Variant>
AV-unprocessed.smi:3287-6

> <Gold.Version>
5.8.1

> <Gold.Id.Protein>
6NUR|6NUR_protein|mol2

> <Gold.PLP.Fitness>
50.4892

> <Gold.PLP.PLP>
-39.6099

> <Gold.PLP.part.hbond>
-4.0000

> <Gold.PLP.part.metal>
0.0000

> <Gold.PLP.part.buried>
-1.3175

> <Gold.PLP.part.nonpolar>
-34.2515

> <Gold.PLP.part.repulsive>
0.1094

> <Gold.PLP.ligand.clash>
0.0000

> <Gold.PLP.ligand.torsion>
0.4299

> <Gold.PLP.Chemscore.Hbond>
3.3360

> <Gold.PLP.Chemscore.CHOScore>
0.5702

> <Gold.PLP.Chemscore.Metal>
0.0000

> <Gold.Chemscore.Hbonds>
donor molecule, donor type, donor heavy atom, donor atom, acceptor molecule, acceptor atom, score
      L1  H     6    43       P1  8028  1.76
      P1  H  7989  7998       L1     9  0.59
      P1  H  8011  8017       L1     9  0.03

> <Gold.PLP.Chemscore.Internal.Correction>
0.0206

> <Gold.Rescore>
     Score         DG    S(hbond)    S(metal)    S(lipo)     H(rot)  DE(clash)    DE(int)     intcor
     19.83     -20.46       1.68        0.00     121.57       1.90       0.07       0.55       ----

> <Gold.Chemscore.Fitness>
19.8274

> <Gold.Chemscore.DG>
-20.4565

> <Gold.Chemscore.ZeroCoef>
-5.4800

> <Gold.Chemscore.Hbond>
1.6844

> <Gold.Chemscore.Metal>
0.0000

> <Gold.Chemscore.Lipo>
121.5672

> <Gold.Chemscore.Internal_Hbond>
0.0000

> <Gold.Chemscore.DEClash>
0.0750

> <Gold.Chemscore.DEInternal>
0.5541

> <Gold.Chemscore.Rot>
1.9035

> <Gold.Chemscore.Internal.Correction>
   9.000000E+99

> <Gold.Chemscore.Hbonds>
donor molecule, donor type, donor heavy atom, donor atom, acceptor molecule, acceptor atom, score
      L1  H     6    43       P1  8028  0.85
      P1  H  7989  7998       L1     9  0.47

> <Gold.Chemscore.Hbond.Weighted>
-5.6260

> <Gold.Chemscore.Metal.Weighted>
-0.0000

> <Gold.Chemscore.Lipo.Weighted>
-14.2234

> <Gold.Chemscore.Internal_Hbond.Weighted>
0.0000

> <Gold.Chemscore.DEClash.Weighted>
0.0750

> <Gold.Chemscore.DEInternal.Weighted>
0.5541

> <Gold.Chemscore.Rot.Weighted>
4.8729

> <Gold.Chemscore.Internal.Correction.Weighted>
   9.000000E+99

> <Gold.Protein.RotatedTorsions>
[ 6907 6896 6895 6894 ] final  173.58 input  -60.11 | X-H torsion
[ 7974 7965 7964 7962 ] final  -75.86 input  175.53 | X-H torsion
[ 8008 7997 7996 7995 ] final  115.29 input   59.86 | X-H torsion
[ 10167 10162 10161 10158 ] final  124.88 input  -65.29 | X-H torsion
[ 10718 10713 10712 10709 ] final   75.86 input   66.30 | X-H torsion
[ 10763 10752 10751 10750 ] final  132.00 input  -60.55 | X-H torsion
[ 11005 11000 10999 10996 ] final  158.00 input  -57.11 | X-H torsion

> <Gold.Protein.ActiveResidues>
 VAL166  LYS551  ARG553  GLY616  TRP617  ASP618  TYR619  PRO620  LYS621  CYS622 
 ASP623  PHE694  ASN695  SER759  ASP760  ASP761  ALA762  ILE779  LEU786  VAL792 
 PHE793  MET794  SER795  GLU796  ALA797  LYS798  CYS799  TRP800  GLU811  SER814 

> <Gold.Protein.RotatedAtoms>
  151.7660  133.3337  159.3430 H   0  0  0  0  0  0  0  0  0  0  0  0  # atno 6907 bound_to 6896
  150.7480  134.6062  159.6072 H   0  0  0  0  0  0  0  0  0  0  0  0  # atno 6908 bound_to 6896
  152.3373  134.7182  160.0325 H   0  0  0  0  0  0  0  0  0  0  0  0  # atno 6909 bound_to 6896
  145.6204  140.9364  143.1141 H   0  0  0  0  0  0  0  0  0  0  0  0  # atno 7974 bound_to 7965
  156.2372  140.2941  156.0346 H   0  0  0  0  0  0  0  0  0  0  0  0  # atno 8008 bound_to 7997
  155.2056  140.0411  157.2942 H   0  0  0  0  0  0  0  0  0  0  0  0  # atno 8009 bound_to 7997
  154.6101  140.2449  155.7687 H   0  0  0  0  0  0  0  0  0  0  0  0  # atno 8010 bound_to 7997
  139.5716  144.6942  151.3762 H   0  0  0  0  0  0  0  0  0  0  0  0  # atno 10167 bound_to 10162
  157.6651  130.9747  150.1414 H   0  0  0  0  0  0  0  0  0  0  0  0  # atno 10718 bound_to 10713
  153.7835  135.3165  155.3369 H   0  0  0  0  0  0  0  0  0  0  0  0  # atno 10763 bound_to 10752
  154.8152  135.4640  154.0628 H   0  0  0  0  0  0  0  0  0  0  0  0  # atno 10764 bound_to 10752
  153.1924  135.6910  153.8421 H   0  0  0  0  0  0  0  0  0  0  0  0  # atno 10765 bound_to 10752
  140.1823  134.8467  157.2817 H   0  0  0  0  0  0  0  0  0  0  0  0  # atno 11005 bound_to 11000
  144.7233  139.7957  143.7374 LP  0  0  0  0  0  0  0  0  0  0  0  0  # atno 17320 bound_to 7965
  146.1435  139.4499  143.0093 LP  0  0  0  0  0  0  0  0  0  0  0  0  # atno 17321 bound_to 7965
  140.7001  143.7654  150.7388 LP  0  0  0  0  0  0  0  0  0  0  0  0  # atno 17342 bound_to 10162
  140.1162  143.4654  152.2341 LP  0  0  0  0  0  0  0  0  0  0  0  0  # atno 17343 bound_to 10162
  156.2236  130.3676  149.8527 LP  0  0  0  0  0  0  0  0  0  0  0  0  # atno 17370 bound_to 10713
  156.6373  130.8690  151.3507 LP  0  0  0  0  0  0  0  0  0  0  0  0  # atno 17371 bound_to 10713
  140.2253  134.3974  155.7546 LP  0  0  0  0  0  0  0  0  0  0  0  0  # atno 17394 bound_to 11000
  141.2223  133.7187  156.8555 LP  0  0  0  0  0  0  0  0  0  0  0  0  # atno 17395 bound_to 11000

$$$$
