AV-unprocessed.smi:354|AV-procd|sdf|2403|dock6
  -GOLD-   2262022333D 1   1.00000     0.00000
 Structure written by MMmdl.
 36 38  0  0  0  0  0  0  0  0  1 V2000
  152.0891  137.0785  155.8489 O   0  0  0  0  0  0  0  0  0  0  0  0
  152.1553  138.4841  155.7439 C   0  0  0  0  0  0  0  0  0  0  0  0
  150.9171  139.0884  155.1531 C   0  0  0  0  0  0  0  0  0  0  0  0
  150.1069  138.3852  154.3606 N   0  0  0  0  0  0  0  0  0  0  0  0
  149.1037  139.2885  154.0705 C   0  0  0  0  0  0  0  0  0  0  0  0
  147.9413  139.1472  153.2790 C   0  0  0  0  0  0  0  0  0  0  0  0
  147.0417  140.2235  153.1332 C   0  0  0  0  0  0  0  0  0  0  0  0
  147.2898  141.4531  153.7767 C   0  0  0  0  0  0  0  0  0  0  0  0
  148.4425  141.6153  154.5688 C   0  0  0  0  0  0  0  0  0  0  0  0
  149.3397  140.5389  154.7082 C   0  0  0  0  0  0  0  0  0  0  0  0
  150.5393  140.3710  155.3936 N   0  0  0  0  0  0  0  0  0  0  0  0
  151.2043  141.3835  156.2051 C   0  0  0  0  0  0  0  0  0  0  0  0
  150.9009  141.2397  157.7108 C   0  0  2  0  0  0  0  0  0  0  0  0
  149.5455  140.8828  157.9014 O   0  0  0  0  0  0  0  0  0  0  0  0
  151.2825  142.5036  158.4691 C   0  0  0  0  0  0  0  0  0  0  0  0
  150.7092  143.7471  158.1197 C   0  0  0  0  0  0  0  0  0  0  0  0
  151.0710  144.9181  158.8131 C   0  0  0  0  0  0  0  0  0  0  0  0
  152.0111  144.8553  159.8589 C   0  0  0  0  0  0  0  0  0  0  0  0
  152.5912  143.6212  160.2085 C   0  0  0  0  0  0  0  0  0  0  0  0
  152.2315  142.4485  159.5155 C   0  0  0  0  0  0  0  0  0  0  0  0
  152.8068  141.2710  159.8593 F   0  0  0  0  0  0  0  0  0  0  0  0
  151.2039  136.8052  155.6637 H   0  0  0  0  0  0  0  0  0  0  0  0
  152.3149  138.8949  156.7415 H   0  0  0  0  0  0  0  0  0  0  0  0
  153.0242  138.7690  155.1508 H   0  0  0  0  0  0  0  0  0  0  0  0
  147.7403  138.2081  152.7849 H   0  0  0  0  0  0  0  0  0  0  0  0
  146.1560  140.1044  152.5266 H   0  0  0  0  0  0  0  0  0  0  0  0
  146.5947  142.2718  153.6622 H   0  0  0  0  0  0  0  0  0  0  0  0
  148.6341  142.5561  155.0631 H   0  0  0  0  0  0  0  0  0  0  0  0
  152.2774  141.2910  156.0343 H   0  0  0  0  0  0  0  0  0  0  0  0
  150.9285  142.3790  155.8597 H   0  0  0  0  0  0  0  0  0  0  0  0
  151.4836  140.4112  158.1134 H   0  0  0  0  0  0  0  0  0  0  0  0
  149.0469  141.1922  157.1608 H   0  0  0  0  0  0  0  0  0  0  0  0
  149.9909  143.8081  157.3152 H   0  0  0  0  0  0  0  0  0  0  0  0
  150.6284  145.8652  158.5412 H   0  0  0  0  0  0  0  0  0  0  0  0
  152.2895  145.7534  160.3906 H   0  0  0  0  0  0  0  0  0  0  0  0
  153.3156  143.5740  161.0081 H   0  0  0  0  0  0  0  0  0  0  0  0
  1  2  1  0  0  0  0
  1 22  1  0  0  0  0
  2  3  1  0  0  0  0
  2 23  1  0  0  0  0
  2 24  1  0  0  0  0
  3 11  1  0  0  0  0
  3  4  2  0  0  0  0
  4  5  1  0  0  0  0
  5 10  2  0  0  0  0
  5  6  1  0  0  0  0
  6  7  2  0  0  0  0
  6 25  1  0  0  0  0
  7  8  1  0  0  0  0
  7 26  1  0  0  0  0
  8  9  2  0  0  0  0
  8 27  1  0  0  0  0
  9 10  1  0  0  0  0
  9 28  1  0  0  0  0
 10 11  1  0  0  0  0
 11 12  1  0  0  0  0
 12 13  1  0  0  0  0
 12 29  1  0  0  0  0
 12 30  1  0  0  0  0
 13 14  1  0  0  0  0
 13 15  1  0  0  0  0
 13 31  1  0  0  0  0
 14 32  1  0  0  0  0
 15 20  1  0  0  0  0
 15 16  2  0  0  0  0
 16 17  1  0  0  0  0
 16 33  1  0  0  0  0
 17 18  2  0  0  0  0
 17 34  1  0  0  0  0
 18 19  1  0  0  0  0
 18 35  1  0  0  0  0
 19 20  2  0  0  0  0
 19 36  1  0  0  0  0
 20 21  1  0  0  0  0
M  END
> <s_m_source_file>
AV-unprocessed.smi

> <i_m_source_file_index>
354

> <i_lp_mmshare_version>
43012

> <i_f3d_flags>
0

> <s_epik_input>
W2NIXTFbY0hdW2NIXVtjSF1jKGMxMiluKGMobjIpW0NIMl1bT0hdKVtDSDJdW0NASF0oW09IXSljM1tjSF1bY0hdW2NIXVtjSF1jM0Y=

> <s_epik_cmdline>
J2VwaWtfcHl0aG9uJywgJy1waCcsICc3LjAnLCAnLXRuJywgJzgnLCAnLW1hJywgJzIwMCcsICctbWV0YWxfYmluZGluZycsICctaW1hZScsICc8aW5maWxlLm1hZT4nLCAnLW9tYWUnLCAnPG91dGZpbGUubWFlPic=

> <r_epik_Ionization_Penalty>
0.0634722

> <r_epik_Ionization_Penalty_Charging>
0

> <r_epik_Ionization_Penalty_Neutral>
0.0634722

> <r_epik_State_Penalty>
0.0551572

> <r_epik_Charging_Adjusted_Penalty>
0.0551572

> <i_epik_Tot_Q>
0

> <i_epik_Tot_abs_Q>
0

> <r_epik_Metal_State_Penalty>
5.78034e-05

> <b_epik_Metal_Only>
0

> <s_lp_Force_Field>
OPLS_2005

> <r_lp_Energy>
13.1732

> <b_lp_Chiralities_Consistent>
1

> <s_lp_Variant>
AV-unprocessed.smi:354-1

> <Gold.Version>
5.8.1

> <Gold.Id.Protein>
6NUR|6NUR_protein|mol2

> <Gold.PLP.Fitness>
49.1823

> <Gold.PLP.PLP>
-47.8343

> <Gold.PLP.part.hbond>
-1.0000

> <Gold.PLP.part.metal>
0.0000

> <Gold.PLP.part.buried>
-1.6285

> <Gold.PLP.part.nonpolar>
-44.9406

> <Gold.PLP.part.repulsive>
0.2123

> <Gold.PLP.ligand.clash>
0.0000

> <Gold.PLP.ligand.torsion>
0.8493

> <Gold.PLP.Chemscore.Hbond>
1.0000

> <Gold.PLP.Chemscore.CHOScore>
0.0000

> <Gold.PLP.Chemscore.Metal>
0.0000

> <Gold.Chemscore.Hbonds>
donor molecule, donor type, donor heavy atom, donor atom, acceptor molecule, acceptor atom, score
      P1  H 10752 10765       L1     1  0.89

> <Gold.PLP.Chemscore.Internal.Correction>
0.0467

> <Gold.Rescore>
     Score         DG    S(hbond)    S(metal)    S(lipo)     H(rot)  DE(clash)    DE(int)     intcor
     15.31     -16.31       0.81        0.00     129.57       2.75       0.15       0.85       ----

> <Gold.Chemscore.Fitness>
15.3061

> <Gold.Chemscore.DG>
-16.3052

> <Gold.Chemscore.ZeroCoef>
-5.4800

> <Gold.Chemscore.Hbond>
0.8100

> <Gold.Chemscore.Metal>
0.0000

> <Gold.Chemscore.Lipo>
129.5712

> <Gold.Chemscore.Internal_Hbond>
0.0000

> <Gold.Chemscore.DEClash>
0.1519

> <Gold.Chemscore.DEInternal>
0.8473

> <Gold.Chemscore.Rot>
2.7500

> <Gold.Chemscore.Internal.Correction>
   9.000000E+99

> <Gold.Chemscore.Hbonds>
donor molecule, donor type, donor heavy atom, donor atom, acceptor molecule, acceptor atom, score
      P1  H 10752 10765       L1     1  0.18

> <Gold.Chemscore.Hbond.Weighted>
-2.7053

> <Gold.Chemscore.Metal.Weighted>
-0.0000

> <Gold.Chemscore.Lipo.Weighted>
-15.1598

> <Gold.Chemscore.Internal_Hbond.Weighted>
0.0000

> <Gold.Chemscore.DEClash.Weighted>
0.1519

> <Gold.Chemscore.DEInternal.Weighted>
0.8473

> <Gold.Chemscore.Rot.Weighted>
7.0399

> <Gold.Chemscore.Internal.Correction.Weighted>
   9.000000E+99

> <Gold.Protein.RotatedTorsions>
[ 6907 6896 6895 6894 ] final   80.01 input  -60.11 | X-H torsion
[ 7974 7965 7964 7962 ] final -155.81 input  175.53 | X-H torsion
[ 8008 7997 7996 7995 ] final   88.02 input   59.86 | X-H torsion
[ 10167 10162 10161 10158 ] final -154.17 input  -65.29 | X-H torsion
[ 10718 10713 10712 10709 ] final  -65.95 input   66.30 | X-H torsion
[ 10763 10752 10751 10750 ] final -157.18 input  -60.55 | X-H torsion
[ 11005 11000 10999 10996 ] final   80.94 input  -57.11 | X-H torsion

> <Gold.Protein.ActiveResidues>
 VAL166  LYS551  ARG553  GLY616  TRP617  ASP618  TYR619  PRO620  LYS621  CYS622 
 ASP623  PHE694  ASN695  SER759  ASP760  ASP761  ALA762  ILE779  LEU786  VAL792 
 PHE793  MET794  SER795  GLU796  ALA797  LYS798  CYS799  TRP800  GLU811  SER814 

> <Gold.Protein.RotatedAtoms>
  152.5219  134.3424  159.9221 H   0  0  0  0  0  0  0  0  0  0  0  0  # atno 6907 bound_to 6896
  151.3373  133.3970  159.2675 H   0  0  0  0  0  0  0  0  0  0  0  0  # atno 6908 bound_to 6896
  150.9831  134.9200  159.7914 H   0  0  0  0  0  0  0  0  0  0  0  0  # atno 6909 bound_to 6896
  144.7622  140.4198  143.5968 H   0  0  0  0  0  0  0  0  0  0  0  0  # atno 7974 bound_to 7965
  155.9826  140.3376  155.6677 H   0  0  0  0  0  0  0  0  0  0  0  0  # atno 8008 bound_to 7997
  155.6528  140.0707  157.2599 H   0  0  0  0  0  0  0  0  0  0  0  0  # atno 8009 bound_to 7997
  154.4196  140.1722  156.1681 H   0  0  0  0  0  0  0  0  0  0  0  0  # atno 8010 bound_to 7997
  139.7036  143.9223  152.2439 H   0  0  0  0  0  0  0  0  0  0  0  0  # atno 10167 bound_to 10162
  156.0640  130.4255  150.1638 H   0  0  0  0  0  0  0  0  0  0  0  0  # atno 10718 bound_to 10713
  154.7656  135.3130  154.8293 H   0  0  0  0  0  0  0  0  0  0  0  0  # atno 10763 bound_to 10752
  153.9042  135.6812  153.4758 H   0  0  0  0  0  0  0  0  0  0  0  0  # atno 10764 bound_to 10752
  153.1261  135.4800  154.9208 H   0  0  0  0  0  0  0  0  0  0  0  0  # atno 10765 bound_to 10752
  139.9116  134.7959  156.1976 H   0  0  0  0  0  0  0  0  0  0  0  0  # atno 11005 bound_to 11000
  145.6581  139.1576  143.2824 LP  0  0  0  0  0  0  0  0  0  0  0  0  # atno 17320 bound_to 7965
  146.1697  140.6664  142.9239 LP  0  0  0  0  0  0  0  0  0  0  0  0  # atno 17321 bound_to 7965
  139.9072  144.6877  150.8601 LP  0  0  0  0  0  0  0  0  0  0  0  0  # atno 17342 bound_to 10162
  140.7716  143.3470  151.2092 LP  0  0  0  0  0  0  0  0  0  0  0  0  # atno 17343 bound_to 10162
  156.9701  130.9832  151.3460 LP  0  0  0  0  0  0  0  0  0  0  0  0  # atno 17370 bound_to 10713
  157.5669  130.8284  149.8339 LP  0  0  0  0  0  0  0  0  0  0  0  0  # atno 17371 bound_to 10713
  141.0545  133.6872  156.1834 LP  0  0  0  0  0  0  0  0  0  0  0  0  # atno 17394 bound_to 11000
  140.6759  134.4819  157.5588 LP  0  0  0  0  0  0  0  0  0  0  0  0  # atno 17395 bound_to 11000

$$$$
