AV-unprocessed.smi:92|AV-procd|sdf|841|dock10
  -GOLD-   2262017273D 1   1.00000     0.00000
 Structure written by MMmdl.
 61 64  0  0  0  0  0  0  0  0  2 V2000
  138.3380  143.7261  155.0855 C   0  0  0  0  0  0  0  0  0  0  0  0
  138.4246  142.7960  156.3041 C   0  0  0  0  0  0  0  0  0  0  0  0
  138.6536  141.3789  155.9247 N   0  3  2  0  0  0  0  0  0  0  0  0
  138.6799  140.4566  157.0886 C   0  0  0  0  0  0  0  0  0  0  0  0
  138.7990  138.9913  156.6405 C   0  0  0  0  0  0  0  0  0  0  0  0
  140.0447  138.7687  155.7447 C   0  0  1  0  0  0  0  0  0  0  0  0
  140.2211  137.3761  155.3000 N   0  0  0  0  0  0  0  0  0  0  0  0
  139.0474  136.6944  154.7596 C   0  0  0  0  0  0  0  0  0  0  0  0
  141.3111  137.1618  154.5287 C   0  0  0  0  0  0  0  0  0  0  0  0
  142.2528  138.1334  154.4025 N   0  0  0  0  0  0  0  0  0  0  0  0
  143.3455  137.9073  153.6669 C   0  0  0  0  0  0  0  0  0  0  0  0
  143.6879  136.8039  152.9972 N   0  0  0  0  0  0  0  0  0  0  0  0
  142.7423  135.8282  153.1263 C   0  0  0  0  0  0  0  0  0  0  0  0
  141.5325  135.9263  153.8673 C   0  0  0  0  0  0  0  0  0  0  0  0
  140.8216  134.7368  153.7870 N   0  0  0  0  0  0  0  0  0  0  0  0
  141.5734  133.9724  153.0424 C   0  0  0  0  0  0  0  0  0  0  0  0
  142.7432  134.5490  152.5963 N   0  0  0  0  0  0  0  0  0  0  0  0
  143.7602  133.9278  151.7965 C   0  0  0  0  0  0  0  0  0  0  0  0
  144.1668  134.4873  150.4308 C   0  0  0  0  0  0  0  0  0  0  0  0
  144.4422  133.0480  149.9361 C   0  0  0  0  0  0  0  0  0  0  0  0
  143.9733  132.7694  148.4971 C   0  0  0  0  0  0  0  0  0  0  0  0
  143.6261  133.9570  147.8153 O   0  0  0  0  0  0  0  0  0  0  0  0
  145.9136  132.6072  150.0871 C   0  0  0  0  0  0  0  0  0  0  0  0
  146.0387  131.2128  150.2767 O   0  0  0  0  0  0  0  0  0  0  0  0
  143.4771  132.6168  151.0648 C   0  0  0  0  0  0  0  0  0  0  0  0
  139.9996  139.7676  154.5567 C   0  0  1  0  0  0  0  0  0  0  0  0
  138.9154  139.4469  153.5057 C   0  0  0  0  0  0  0  0  0  0  0  0
  139.8614  141.2129  155.0761 C   0  0  0  0  0  0  0  0  0  0  0  0
  138.2658  144.7663  155.4039 H   0  0  0  0  0  0  0  0  0  0  0  0
  137.4634  143.5177  154.4698 H   0  0  0  0  0  0  0  0  0  0  0  0
  139.2237  143.6349  154.4561 H   0  0  0  0  0  0  0  0  0  0  0  0
  139.2549  143.1399  156.9224 H   0  0  0  0  0  0  0  0  0  0  0  0
  137.5273  142.8800  156.9191 H   0  0  0  0  0  0  0  0  0  0  0  0
  139.5157  140.7159  157.7404 H   0  0  0  0  0  0  0  0  0  0  0  0
  137.7729  140.5674  157.6817 H   0  0  0  0  0  0  0  0  0  0  0  0
  138.8479  138.3740  157.5380 H   0  0  0  0  0  0  0  0  0  0  0  0
  137.8929  138.6893  156.1144 H   0  0  0  0  0  0  0  0  0  0  0  0
  140.9228  139.0139  156.3449 H   0  0  0  0  0  0  0  0  0  0  0  0
  139.3164  135.7567  154.2701 H   0  0  0  0  0  0  0  0  0  0  0  0
  138.5335  137.3236  154.0319 H   0  0  0  0  0  0  0  0  0  0  0  0
  138.3454  136.4506  155.5566 H   0  0  0  0  0  0  0  0  0  0  0  0
  144.0479  138.7258  153.6096 H   0  0  0  0  0  0  0  0  0  0  0  0
  141.2946  132.9559  152.8055 H   0  0  0  0  0  0  0  0  0  0  0  0
  144.6414  133.8230  152.4315 H   0  0  0  0  0  0  0  0  0  0  0  0
  143.3418  134.9702  149.9049 H   0  0  0  0  0  0  0  0  0  0  0  0
  145.0411  135.1386  150.4552 H   0  0  0  0  0  0  0  0  0  0  0  0
  144.7612  132.2843  147.9200 H   0  0  0  0  0  0  0  0  0  0  0  0
  143.1207  132.0899  148.4814 H   0  0  0  0  0  0  0  0  0  0  0  0
  144.4199  134.3905  147.5417 H   0  0  0  0  0  0  0  0  0  0  0  0
  146.5014  132.8953  149.2150 H   0  0  0  0  0  0  0  0  0  0  0  0
  146.3842  133.0950  150.9411 H   0  0  0  0  0  0  0  0  0  0  0  0
  146.9572  130.9909  150.2873 H   0  0  0  0  0  0  0  0  0  0  0  0
  143.7753  131.7229  151.6135 H   0  0  0  0  0  0  0  0  0  0  0  0
  142.4413  132.5388  150.7291 H   0  0  0  0  0  0  0  0  0  0  0  0
  140.9587  139.7219  154.0401 H   0  0  0  0  0  0  0  0  0  0  0  0
  137.9098  139.5085  153.9207 H   0  0  0  0  0  0  0  0  0  0  0  0
  139.0388  138.4464  153.0911 H   0  0  0  0  0  0  0  0  0  0  0  0
  138.9658  140.1466  152.6710 H   0  0  0  0  0  0  0  0  0  0  0  0
  139.8188  141.8990  154.2290 H   0  0  0  0  0  0  0  0  0  0  0  0
  140.7455  141.4877  155.6539 H   0  0  0  0  0  0  0  0  0  0  0  0
  137.8686  141.1071  155.3499 H   0  0  0  0  0  0  0  0  0  0  0  0
  1  2  1  0  0  0  0
  1 29  1  0  0  0  0
  1 30  1  0  0  0  0
  1 31  1  0  0  0  0
  2  3  1  0  0  0  0
  2 32  1  0  0  0  0
  2 33  1  0  0  0  0
  3 28  1  0  0  0  0
  3  4  1  0  0  0  0
  3 61  1  0  0  0  0
  4  5  1  0  0  0  0
  4 34  1  0  0  0  0
  4 35  1  0  0  0  0
  5  6  1  0  0  0  0
  5 36  1  0  0  0  0
  5 37  1  0  0  0  0
  6  7  1  0  0  0  0
  6 26  1  0  0  0  0
  6 38  1  0  0  0  0
  7  8  1  0  0  0  0
  7  9  1  0  0  0  0
  8 39  1  0  0  0  0
  8 40  1  0  0  0  0
  8 41  1  0  0  0  0
  9 14  1  0  0  0  0
  9 10  2  0  0  0  0
 10 11  1  0  0  0  0
 11 12  2  0  0  0  0
 11 42  1  0  0  0  0
 12 13  1  0  0  0  0
 13 17  1  0  0  0  0
 13 14  2  0  0  0  0
 14 15  1  0  0  0  0
 15 16  2  0  0  0  0
 16 17  1  0  0  0  0
 16 43  1  0  0  0  0
 17 18  1  0  0  0  0
 18 25  1  0  0  0  0
 18 19  1  0  0  0  0
 18 44  1  0  0  0  0
 19 20  1  0  0  0  0
 19 45  1  0  0  0  0
 19 46  1  0  0  0  0
 20 21  1  0  0  0  0
 20 23  1  0  0  0  0
 20 25  1  0  0  0  0
 21 22  1  0  0  0  0
 21 47  1  0  0  0  0
 21 48  1  0  0  0  0
 22 49  1  0  0  0  0
 23 24  1  0  0  0  0
 23 50  1  0  0  0  0
 23 51  1  0  0  0  0
 24 52  1  0  0  0  0
 25 53  1  0  0  0  0
 25 54  1  0  0  0  0
 26 27  1  0  0  0  0
 26 28  1  0  0  0  0
 26 55  1  0  0  0  0
 27 56  1  0  0  0  0
 27 57  1  0  0  0  0
 27 58  1  0  0  0  0
 28 59  1  0  0  0  0
 28 60  1  0  0  0  0
M  CHG  1   3   1
M  END
> <s_m_source_file>
AV-unprocessed.smi

> <i_m_source_file_index>
92

> <i_lp_mmshare_version>
43012

> <i_f3d_flags>
0

> <s_epik_input>
W0NIM11bQ0gyXU4xW0NIMl1bQ0gyXVtDQEhdKFtDQEBIXShbQ0gzXSlbQ0gyXTEpTihbQ0gzXSljKG5bY0hdbjIpYyhjMjMpbltjSF1uM1tDSF0oW0NIMl00KVtDSDJdQzQoW0NIMl1bT0hdKVtDSDJdW09IXQ==

> <s_epik_cmdline>
J2VwaWtfcHl0aG9uJywgJy1waCcsICc3LjAnLCAnLXRuJywgJzgnLCAnLW1hJywgJzIwMCcsICctbWV0YWxfYmluZGluZycsICctaW1hZScsICc8aW5maWxlLm1hZT4nLCAnLW9tYWUnLCAnPG91dGZpbGUubWFlPic=

> <r_lp_tautomer_probability>
1

> <r_epik_Ionization_Penalty>
0.00235514

> <r_epik_Ionization_Penalty_Charging>
0.00137877

> <r_epik_Ionization_Penalty_Neutral>
0.000976366

> <r_epik_State_Penalty>
-0

> <r_epik_Charging_Adjusted_Penalty>
0.00137877

> <i_epik_Tot_Q>
1

> <i_epik_Tot_abs_Q>
1

> <r_epik_Metal_State_Penalty>
-0

> <b_epik_Metal_Only>
0

> <s_lp_Force_Field>
OPLS_2005

> <r_lp_Energy>
54.7459

> <b_lp_Chiralities_Consistent>
1

> <s_lp_Variant>
AV-unprocessed.smi:92-1

> <Gold.Version>
5.8.1

> <Gold.Id.Protein>
6NUR|6NUR_protein|mol2

> <Gold.PLP.Fitness>
53.1206

> <Gold.PLP.PLP>
-43.1861

> <Gold.PLP.part.hbond>
-6.5307

> <Gold.PLP.part.metal>
0.0000

> <Gold.PLP.part.buried>
-2.7288

> <Gold.PLP.part.nonpolar>
-35.5000

> <Gold.PLP.part.repulsive>
0.5205

> <Gold.PLP.ligand.clash>
0.9843

> <Gold.PLP.ligand.torsion>
2.0723

> <Gold.PLP.Chemscore.Hbond>
3.8363

> <Gold.PLP.Chemscore.CHOScore>
0.8825

> <Gold.PLP.Chemscore.Metal>
0.0000

> <Gold.Chemscore.Hbonds>
donor molecule, donor type, donor heavy atom, donor atom, acceptor molecule, acceptor atom, score
      L1  H    22    49       P1  7921  1.00
      L1  H    24    52       P1 10747  1.00
      P1  H 10192 10197       L1    22  0.80
      P1  H 11000 11005       L1    15  1.00
      L1  C    11    42       P1 10175  0.83
      L1  C    16    43       P1 10957  0.24

> <Gold.PLP.Chemscore.Internal.Correction>
0.9074

> <Gold.Rescore>
     Score         DG    S(hbond)    S(metal)    S(lipo)     H(rot)  DE(clash)    DE(int)     intcor
     10.94     -18.42       3.14        0.00      97.86       3.51       2.26       5.21       ----

> <Gold.Chemscore.Fitness>
10.9437

> <Gold.Chemscore.DG>
-18.4178

> <Gold.Chemscore.ZeroCoef>
-5.4800

> <Gold.Chemscore.Hbond>
3.1396

> <Gold.Chemscore.Metal>
0.0000

> <Gold.Chemscore.Lipo>
97.8558

> <Gold.Chemscore.Internal_Hbond>
0.0000

> <Gold.Chemscore.DEClash>
2.2641

> <Gold.Chemscore.DEInternal>
5.2100

> <Gold.Chemscore.Rot>
3.5147

> <Gold.Chemscore.Internal.Correction>
   9.000000E+99

> <Gold.Chemscore.Hbonds>
donor molecule, donor type, donor heavy atom, donor atom, acceptor molecule, acceptor atom, score
      L1  H    22    49       P1  7921  0.99
      L1  H    24    52       P1 10747  0.95
      P1  H 10192 10197       L1    22  0.43
      P1  H 11000 11005       L1    15  0.50

> <Gold.Chemscore.Hbond.Weighted>
-10.4864

> <Gold.Chemscore.Metal.Weighted>
-0.0000

> <Gold.Chemscore.Lipo.Weighted>
-11.4491

> <Gold.Chemscore.Internal_Hbond.Weighted>
0.0000

> <Gold.Chemscore.DEClash.Weighted>
2.2641

> <Gold.Chemscore.DEInternal.Weighted>
5.2100

> <Gold.Chemscore.Rot.Weighted>
8.9977

> <Gold.Chemscore.Internal.Correction.Weighted>
   9.000000E+99

> <Gold.Protein.RotatedTorsions>
[ 6907 6896 6895 6894 ] final  -98.44 input  -60.11 | X-H torsion
[ 7974 7965 7964 7962 ] final  178.63 input  175.53 | X-H torsion
[ 8008 7997 7996 7995 ] final   80.04 input   59.86 | X-H torsion
[ 10167 10162 10161 10158 ] final  -18.70 input  -65.29 | X-H torsion
[ 10718 10713 10712 10709 ] final   71.86 input   66.30 | X-H torsion
[ 10763 10752 10751 10750 ] final -152.66 input  -60.55 | X-H torsion
[ 11005 11000 10999 10996 ] final   21.50 input  -57.11 | X-H torsion

> <Gold.Protein.ActiveResidues>
 VAL166  LYS551  ARG553  GLY616  TRP617  ASP618  TYR619  PRO620  LYS621  CYS622 
 ASP623  PHE694  ASN695  SER759  ASP760  ASP761  ALA762  ILE779  LEU786  VAL792 
 PHE793  MET794  SER795  GLU796  ALA797  LYS798  CYS799  TRP800  GLU811  SER814 

> <Gold.Protein.RotatedAtoms>
  150.7047  134.1194  159.4028 H   0  0  0  0  0  0  0  0  0  0  0  0  # atno 6907 bound_to 6896
  151.9180  135.0308  160.0529 H   0  0  0  0  0  0  0  0  0  0  0  0  # atno 6908 bound_to 6896
  152.2280  133.5000  159.5236 H   0  0  0  0  0  0  0  0  0  0  0  0  # atno 6909 bound_to 6896
  144.7154  140.0426  143.6437 H   0  0  0  0  0  0  0  0  0  0  0  0  # atno 7974 bound_to 7965
  155.8779  140.3445  155.5867 H   0  0  0  0  0  0  0  0  0  0  0  0  # atno 8008 bound_to 7997
  155.7753  140.0851  157.2106 H   0  0  0  0  0  0  0  0  0  0  0  0  # atno 8009 bound_to 7997
  154.4022  140.1511  156.2976 H   0  0  0  0  0  0  0  0  0  0  0  0  # atno 8010 bound_to 7997
  140.7261  143.4891  151.0015 H   0  0  0  0  0  0  0  0  0  0  0  0  # atno 10167 bound_to 10162
  157.6472  130.9549  150.0848 H   0  0  0  0  0  0  0  0  0  0  0  0  # atno 10718 bound_to 10713
  154.7979  135.3231  154.7621 H   0  0  0  0  0  0  0  0  0  0  0  0  # atno 10763 bound_to 10752
  153.8295  135.6880  153.4820 H   0  0  0  0  0  0  0  0  0  0  0  0  # atno 10764 bound_to 10752
  153.1680  135.4634  154.9806 H   0  0  0  0  0  0  0  0  0  0  0  0  # atno 10765 bound_to 10752
  140.3909  134.1820  155.7662 H   0  0  0  0  0  0  0  0  0  0  0  0  # atno 11005 bound_to 11000
  146.0010  139.3091  143.0927 LP  0  0  0  0  0  0  0  0  0  0  0  0  # atno 17320 bound_to 7965
  145.8793  140.9373  143.0610 LP  0  0  0  0  0  0  0  0  0  0  0  0  # atno 17321 bound_to 7965
  139.8594  143.7334  152.3174 LP  0  0  0  0  0  0  0  0  0  0  0  0  # atno 17342 bound_to 10162
  139.7544  144.7525  151.0458 LP  0  0  0  0  0  0  0  0  0  0  0  0  # atno 17343 bound_to 10162
  156.1814  130.3650  149.9031 LP  0  0  0  0  0  0  0  0  0  0  0  0  # atno 17370 bound_to 10713
  156.6982  130.8923  151.3596 LP  0  0  0  0  0  0  0  0  0  0  0  0  # atno 17371 bound_to 10713
  141.1891  133.8246  157.0969 LP  0  0  0  0  0  0  0  0  0  0  0  0  # atno 17394 bound_to 11000
  140.0407  134.9855  157.0957 LP  0  0  0  0  0  0  0  0  0  0  0  0  # atno 17395 bound_to 11000

$$$$
