#       Name:                AV-unprocessed.smi:1900
#       Creating user name   scv26
#       Creation time:       Fri Mar 27 09:45:43 2020


#       File generated by GOLD software.
#

@<TRIPOS>MOLECULE
AV-unprocessed.smi:1900
    49    50     1
SMALL
NO_CHARGES


@<TRIPOS>ATOM
      1 ****        -3.9310   1.6428  -1.7833 C.3            1 S1                 0.0000
      2 ****        -4.3209   0.6346  -0.6888 C.3            1 S1                 0.0000
      3 ****        -3.5889  -0.7165  -0.8144 C.3            1 S1                 0.0000
      4 ****        -2.1869  -0.6381  -0.4193 N.3            1 S1                 0.0000
      5 ****        -1.5285  -1.9376  -0.5590 C.3            1 S1                 0.0000
      6 ****         0.0013  -1.9265  -0.3841 C.3            1 S1                 0.0000
      7 ****         0.7208  -1.0757  -1.4458 C.3            1 S1                 0.0000
      8 ****         2.1657  -1.0797  -1.2486 N.am           1 S1                 0.0000
      9 ****         2.8202  -0.3108  -0.3666 C.2            1 S1                 0.0000
     10 ****         2.2617   0.4872   0.3865 O.2            1 S1                 0.0000
     11 ****         4.1443  -0.5289  -0.4162 N.am           1 S1                 0.0000
     12 ****         5.1477   0.1049   0.3589 C.2            1 S1                 0.0000
     13 ****         5.0138   1.1132   1.3582 C.2            1 S1                 0.0000
     14 ****         6.1940   1.4525   1.8577 N.2            1 S1                 0.0000
     15 ****         7.0757   0.6748   1.1901 N.pl3          1 S1                 0.0000
     16 ****         6.4817  -0.1594   0.2691 C.2            1 S1                 0.0000
     17 ****        -2.1038  -0.1038   0.9368 C.3            1 S1                 0.0000
     18 ****        -2.7823   1.2730   1.0538 C.3            1 S1                 0.0000
     19 ****        -2.7760   1.7972   2.4937 C.3            1 S1                 0.0000
     20 ****        -4.1382   1.1754   0.6208 O.3            1 S1                 0.0000
     21 ****         8.0679   0.7250   1.3724 H              1 S1                 0.0000
     22 ****        -4.1791   1.2558  -2.7718 H              1 S1                 0.0000
     23 ****        -2.8633   1.8611  -1.7791 H              1 S1                 0.0000
     24 ****        -4.4655   2.5839  -1.6533 H              1 S1                 0.0000
     25 ****        -5.3896   0.4476  -0.7958 H              1 S1                 0.0000
     26 ****        -4.0988  -1.4518  -0.1897 H              1 S1                 0.0000
     27 ****        -3.6686  -1.0790  -1.8400 H              1 S1                 0.0000
     28 ****        -1.9634  -2.6423   0.1513 H              1 S1                 0.0000
     29 ****        -1.7459  -2.3420  -1.5485 H              1 S1                 0.0000
     30 ****         0.2692  -1.5927   0.6180 H              1 S1                 0.0000
     31 ****         0.3634  -2.9528  -0.4536 H              1 S1                 0.0000
     32 ****         0.5107  -1.4683  -2.4409 H              1 S1                 0.0000
     33 ****         0.3505  -0.0491  -1.4347 H              1 S1                 0.0000
     34 ****         2.7038  -1.7077  -1.8275 H              1 S1                 0.0000
     35 ****         4.4688  -1.2162  -1.0803 H              1 S1                 0.0000
     36 ****         4.1286   1.6035   1.7348 H              1 S1                 0.0000
     37 ****         7.0440  -0.8450  -0.3477 H              1 S1                 0.0000
     38 ****        -2.5650  -0.8015   1.6378 H              1 S1                 0.0000
     39 ****        -1.0626   0.0021   1.2390 H              1 S1                 0.0000
     40 ****        -2.2534   1.9919   0.4272 H              1 S1                 0.0000
     41 ****        -1.7571   1.9060   2.8662 H              1 S1                 0.0000
     42 ****        -3.3072   1.1204   3.1633 H              1 S1                 0.0000
     43 ****        -3.2579   2.7735   2.5543 H              1 S1                 0.0000
     44 ****        -1.6954  -0.0152  -1.0280 LP             1 S1                 0.0000
     45 ****         1.2671   0.5875   0.3600 LP             1 S1                 0.0000
     46 ****         2.8027   1.0350   1.0246 LP             1 S1                 0.0000
     47 ****         6.3881   2.1299   2.5672 LP             1 S1                 0.0000
     48 ****        -4.6283   0.5914   1.2678 LP             1 S1                 0.0000
     49 ****        -4.5342   2.0935   0.6344 LP             1 S1                 0.0000
@<TRIPOS>BOND
    1    1    2 1     
    2    1   22 1     
    3    1   23 1     
    4    1   24 1     
    5    2   20 1     
    6    2    3 1     
    7    2   25 1     
    8    3    4 1     
    9    3   26 1     
   10    3   27 1     
   11    4    5 1     
   12    4   17 1     
   13    5    6 1     
   14    5   28 1     
   15    5   29 1     
   16    6    7 1     
   17    6   30 1     
   18    6   31 1     
   19    7    8 1     
   20    7   32 1     
   21    7   33 1     
   22    8    9 am    
   23    8   34 1     
   24    9   10 2     
   25    9   11 am    
   26   11   12 1     
   27   11   35 1     
   28   12   16 2     
   29   12   13 1     
   30   13   14 2     
   31   13   36 1     
   32   14   15 1     
   33   15   21 1     
   34   15   16 1     
   35   16   37 1     
   36   17   18 1     
   37   17   38 1     
   38   17   39 1     
   39   18   19 1     
   40   18   20 1     
   41   18   40 1     
   42   19   41 1     
   43   19   42 1     
   44   19   43 1     
   45    4   44 1     
   46   10   45 1     
   47   10   46 1     
   48   14   47 1     
   49   20   48 1     
   50   20   49 1     
@<TRIPOS>SUBSTRUCTURE
      1 S1             1
@<TRIPOS>SET
LONE_PAIRS      STATIC     ATOMS    <user>   **** ""
6 44 45 46 47 48 49
DONOR_HYDROGENS      STATIC     ATOMS    <user>   **** ""
3 34 35 21
ATOM$BLUE        STATIC     ATOMS    COLORGROUP SYSTEM
6 44 45 46 47 48 49
ATOM$RED        STATIC     ATOMS    COLORGROUP SYSTEM
3 34 35 21
