AV-unprocessed.smi:1079|AV-procd|sdf|4704|dock2
  -GOLD-   22720 3223D 1   1.00000     0.00000
 Structure written by MMmdl.
 44 45  0  0  0  0  0  0  0  0  1 V2000
  146.9915  136.5902  161.7579 C   0  0  0  0  0  0  0  0  0  0  0  0
  147.3728  137.4590  160.7065 O   0  0  0  0  0  0  0  0  0  0  0  0
  148.4381  136.9388  159.9281 C   0  0  0  0  0  0  0  0  0  0  0  0
  147.9559  136.7143  158.4852 C   0  0  0  0  0  0  0  0  0  0  0  0
  149.0100  136.8814  157.5026 N   0  0  0  0  0  0  0  0  0  0  0  0
  149.2881  138.0896  156.8555 C   0  0  0  0  0  0  0  0  0  0  0  0
  148.5065  139.1926  157.1671 N   0  0  0  0  0  0  0  0  0  0  0  0
  150.2761  138.1903  155.9168 C   0  0  0  0  0  0  0  0  0  0  0  0
  150.5788  139.4154  155.2925 N   0  0  0  0  0  0  0  0  0  0  0  0
  151.8458  140.0616  155.6692 C   0  0  0  0  0  0  0  0  0  0  0  0
  151.6795  141.0732  156.7905 C   0  0  0  0  0  0  0  0  0  0  0  0
  152.0634  140.7376  158.1061 C   0  0  0  0  0  0  0  0  0  0  0  0
  151.9236  141.6760  159.1465 C   0  0  0  0  0  0  0  0  0  0  0  0
  151.3978  142.9540  158.8760 C   0  0  0  0  0  0  0  0  0  0  0  0
  151.0129  143.2931  157.5645 C   0  0  0  0  0  0  0  0  0  0  0  0
  151.1533  142.3547  156.5235 C   0  0  0  0  0  0  0  0  0  0  0  0
  149.7326  140.0005  154.4052 C   0  0  0  0  0  0  0  0  0  0  0  0
  148.3619  139.3658  154.1414 C   0  0  0  0  0  0  0  0  0  0  0  0
  150.0066  141.0461  153.8160 O   0  0  0  0  0  0  0  0  0  0  0  0
  151.1036  137.0247  155.5752 C   0  0  0  0  0  0  0  0  0  0  0  0
  152.0376  137.0162  154.7742 O   0  0  0  0  0  0  0  0  0  0  0  0
  150.7645  135.8502  156.2411 N   0  0  0  0  0  0  0  0  0  0  0  0
  149.7483  135.7173  157.1801 C   0  0  0  0  0  0  0  0  0  0  0  0
  149.5339  134.6146  157.6848 O   0  0  0  0  0  0  0  0  0  0  0  0
  151.3011  135.0235  156.0214 H   0  0  0  0  0  0  0  0  0  0  0  0
  146.1743  137.0377  162.3238 H   0  0  0  0  0  0  0  0  0  0  0  0
  147.8204  136.4138  162.4446 H   0  0  0  0  0  0  0  0  0  0  0  0
  146.6464  135.6308  161.3705 H   0  0  0  0  0  0  0  0  0  0  0  0
  149.2676  137.6473  159.9281 H   0  0  0  0  0  0  0  0  0  0  0  0
  148.8081  136.0081  160.3607 H   0  0  0  0  0  0  0  0  0  0  0  0
  147.5351  135.7183  158.3533 H   0  0  0  0  0  0  0  0  0  0  0  0
  147.1471  137.3976  158.2199 H   0  0  0  0  0  0  0  0  0  0  0  0
  147.7560  139.1340  157.8406 H   0  0  0  0  0  0  0  0  0  0  0  0
  148.7724  140.1234  156.8785 H   0  0  0  0  0  0  0  0  0  0  0  0
  152.5955  139.3204  155.9513 H   0  0  0  0  0  0  0  0  0  0  0  0
  152.2727  140.5795  154.8093 H   0  0  0  0  0  0  0  0  0  0  0  0
  152.4714  139.7603  158.3188 H   0  0  0  0  0  0  0  0  0  0  0  0
  152.2207  141.4161  160.1517 H   0  0  0  0  0  0  0  0  0  0  0  0
  151.2908  143.6737  159.6741 H   0  0  0  0  0  0  0  0  0  0  0  0
  150.6108  144.2736  157.3562 H   0  0  0  0  0  0  0  0  0  0  0  0
  150.8593  142.6230  155.5194 H   0  0  0  0  0  0  0  0  0  0  0  0
  147.8450  139.1393  155.0745 H   0  0  0  0  0  0  0  0  0  0  0  0
  148.4648  138.4472  153.5640 H   0  0  0  0  0  0  0  0  0  0  0  0
  147.7296  140.0473  153.5711 H   0  0  0  0  0  0  0  0  0  0  0  0
  1  2  1  0  0  0  0
  1 26  1  0  0  0  0
  1 27  1  0  0  0  0
  1 28  1  0  0  0  0
  2  3  1  0  0  0  0
  3  4  1  0  0  0  0
  3 29  1  0  0  0  0
  3 30  1  0  0  0  0
  4  5  1  0  0  0  0
  4 31  1  0  0  0  0
  4 32  1  0  0  0  0
  5 23  1  0  0  0  0
  5  6  1  0  0  0  0
  6  7  1  0  0  0  0
  6  8  2  0  0  0  0
  7 33  1  0  0  0  0
  7 34  1  0  0  0  0
  8  9  1  0  0  0  0
  8 20  1  0  0  0  0
  9 10  1  0  0  0  0
  9 17  1  0  0  0  0
 10 11  1  0  0  0  0
 10 35  1  0  0  0  0
 10 36  1  0  0  0  0
 11 16  1  0  0  0  0
 11 12  2  0  0  0  0
 12 13  1  0  0  0  0
 12 37  1  0  0  0  0
 13 14  2  0  0  0  0
 13 38  1  0  0  0  0
 14 15  1  0  0  0  0
 14 39  1  0  0  0  0
 15 16  2  0  0  0  0
 15 40  1  0  0  0  0
 16 41  1  0  0  0  0
 17 18  1  0  0  0  0
 17 19  2  0  0  0  0
 18 42  1  0  0  0  0
 18 43  1  0  0  0  0
 18 44  1  0  0  0  0
 20 21  2  0  0  0  0
 20 22  1  0  0  0  0
 22 25  1  0  0  0  0
 22 23  1  0  0  0  0
 23 24  2  0  0  0  0
M  END
> <s_m_source_file>
AV-unprocessed.smi

> <i_m_source_file_index>
1079

> <i_lp_mmshare_version>
43012

> <i_f3d_flags>
0

> <s_epik_input>
W0NIM11PW0NIMl1bQ0gyXW4xYyhbTkgyXSljKGMoPU8pW25IXWMxPU8pTihDKD1PKVtDSDNdKVtDSDJdYzJbY0hdW2NIXVtjSF1bY0hdW2NIXTI=

> <s_epik_cmdline>
J2VwaWtfcHl0aG9uJywgJy1waCcsICc3LjAnLCAnLXRuJywgJzgnLCAnLW1hJywgJzIwMCcsICctbWV0YWxfYmluZGluZycsICctaW1hZScsICc8aW5maWxlLm1hZT4nLCAnLW9tYWUnLCAnPG91dGZpbGUubWFlPic=

> <r_lp_tautomer_probability>
1

> <r_epik_Ionization_Penalty>
1.40243e-05

> <r_epik_Ionization_Penalty_Charging>
7.95939e-06

> <r_epik_Ionization_Penalty_Neutral>
6.06489e-06

> <r_epik_State_Penalty>
-0

> <r_epik_Charging_Adjusted_Penalty>
7.95939e-06

> <i_epik_Tot_Q>
0

> <i_epik_Tot_abs_Q>
0

> <r_epik_Metal_State_Penalty>
0.00752988

> <b_epik_Metal_Only>
0

> <s_epik_Chemistry_Notes>
This compound has an imine and may undergo hydrolysis.

> <s_lp_Force_Field>
OPLS_2005

> <r_lp_Energy>
29.3793

> <b_lp_Chiralities_Consistent>
1

> <s_lp_Variant>
AV-unprocessed.smi:1079-1

> <Gold.Version>
5.8.1

> <Gold.Id.Protein>
6NUR|6NUR_protein|mol2

> <Gold.PLP.Fitness>
46.0667

> <Gold.PLP.PLP>
-36.0648

> <Gold.PLP.part.hbond>
-6.0000

> <Gold.PLP.part.metal>
0.0000

> <Gold.PLP.part.buried>
-4.9560

> <Gold.PLP.part.nonpolar>
-26.2504

> <Gold.PLP.part.repulsive>
1.2251

> <Gold.PLP.ligand.clash>
0.0000

> <Gold.PLP.ligand.torsion>
2.8547

> <Gold.PLP.Chemscore.Hbond>
4.3773

> <Gold.PLP.Chemscore.CHOScore>
0.0000

> <Gold.PLP.Chemscore.Metal>
0.0000

> <Gold.Chemscore.Hbonds>
donor molecule, donor type, donor heavy atom, donor atom, acceptor molecule, acceptor atom, score
      P1  H  6896  6908       L1    24  0.88
      P1  H  6931  6943       L1     2  0.02
      P1  H  6934  6947       L1     2  1.00
      P1  H  7989  7998       L1    19  0.37
      P1  H  8011  8017       L1    19  0.85
      P1  H 10752 10764       L1    21  0.96

> <Gold.PLP.Chemscore.Internal.Correction>
2.5794

> <Gold.Rescore>
     Score         DG    S(hbond)    S(metal)    S(lipo)     H(rot)  DE(clash)    DE(int)     intcor
     17.48     -20.80       3.46        0.00      76.25       2.02       0.77       2.56       ----

> <Gold.Chemscore.Fitness>
17.4775

> <Gold.Chemscore.DG>
-20.8027

> <Gold.Chemscore.ZeroCoef>
-5.4800

> <Gold.Chemscore.Hbond>
3.4627

> <Gold.Chemscore.Metal>
0.0000

> <Gold.Chemscore.Lipo>
76.2477

> <Gold.Chemscore.Internal_Hbond>
0.0000

> <Gold.Chemscore.DEClash>
0.7660

> <Gold.Chemscore.DEInternal>
2.5591

> <Gold.Chemscore.Rot>
2.0170

> <Gold.Chemscore.Internal.Correction>
   9.000000E+99

> <Gold.Chemscore.Hbonds>
donor molecule, donor type, donor heavy atom, donor atom, acceptor molecule, acceptor atom, score
      P1  H  6896  6908       L1    24  0.79
      P1  H  6934  6947       L1     2  0.91
      P1  H  7989  7998       L1    19  0.17
      P1  H  8011  8017       L1    19  0.78
      P1  H 10752 10764       L1    21  0.92

> <Gold.Chemscore.Hbond.Weighted>
-11.5653

> <Gold.Chemscore.Metal.Weighted>
-0.0000

> <Gold.Chemscore.Lipo.Weighted>
-8.9210

> <Gold.Chemscore.Internal_Hbond.Weighted>
0.0000

> <Gold.Chemscore.DEClash.Weighted>
0.7660

> <Gold.Chemscore.DEInternal.Weighted>
2.5591

> <Gold.Chemscore.Rot.Weighted>
5.1636

> <Gold.Chemscore.Internal.Correction.Weighted>
   9.000000E+99

> <Gold.Protein.RotatedTorsions>
[ 6907 6896 6895 6894 ] final  135.54 input  -60.11 | X-H torsion
[ 7974 7965 7964 7962 ] final -127.65 input  175.53 | X-H torsion
[ 8008 7997 7996 7995 ] final   42.76 input   59.86 | X-H torsion
[ 10167 10162 10161 10158 ] final -167.45 input  -65.29 | X-H torsion
[ 10718 10713 10712 10709 ] final -142.79 input   66.30 | X-H torsion
[ 10763 10752 10751 10750 ] final  -71.08 input  -60.55 | X-H torsion
[ 11005 11000 10999 10996 ] final   34.46 input  -57.11 | X-H torsion

> <Gold.Protein.ActiveResidues>
 VAL166  LYS551  ARG553  GLY616  TRP617  ASP618  TYR619  PRO620  LYS621  CYS622 
 ASP623  PHE694  ASN695  SER759  ASP760  ASP761  ALA762  ILE779  LEU786  VAL792 
 PHE793  MET794  SER795  GLU796  ALA797  LYS798  CYS799  TRP800  GLU811  SER814 

> <Gold.Protein.RotatedAtoms>
  152.2993  133.5639  159.5607 H   0  0  0  0  0  0  0  0  0  0  0  0  # atno 6907 bound_to 6896
  150.7270  134.0314  159.3744 H   0  0  0  0  0  0  0  0  0  0  0  0  # atno 6908 bound_to 6896
  151.8215  135.0650  160.0476 H   0  0  0  0  0  0  0  0  0  0  0  0  # atno 6909 bound_to 6896
  144.9750  140.7583  143.4647 H   0  0  0  0  0  0  0  0  0  0  0  0  # atno 7974 bound_to 7965
  155.2916  140.3379  155.4252 H   0  0  0  0  0  0  0  0  0  0  0  0  # atno 8008 bound_to 7997
  156.2043  140.1745  156.7872 H   0  0  0  0  0  0  0  0  0  0  0  0  # atno 8009 bound_to 7997
  154.5600  140.0689  156.8788 H   0  0  0  0  0  0  0  0  0  0  0  0  # atno 8010 bound_to 7997
  139.6048  144.0935  152.1782 H   0  0  0  0  0  0  0  0  0  0  0  0  # atno 10167 bound_to 10162
  156.3501  130.7683  151.1835 H   0  0  0  0  0  0  0  0  0  0  0  0  # atno 10718 bound_to 10713
  154.4267  135.5974  153.6043 H   0  0  0  0  0  0  0  0  0  0  0  0  # atno 10763 bound_to 10752
  152.9796  135.5965  154.3889 H   0  0  0  0  0  0  0  0  0  0  0  0  # atno 10764 bound_to 10752
  154.3722  135.2841  155.2238 H   0  0  0  0  0  0  0  0  0  0  0  0  # atno 10765 bound_to 10752
  140.2526  134.3285  155.7885 H   0  0  0  0  0  0  0  0  0  0  0  0  # atno 11005 bound_to 11000
  145.2504  139.2034  143.4945 LP  0  0  0  0  0  0  0  0  0  0  0  0  # atno 17320 bound_to 7965
  146.3392  140.2416  142.8596 LP  0  0  0  0  0  0  0  0  0  0  0  0  # atno 17321 bound_to 7965
  140.0539  144.5910  150.7314 LP  0  0  0  0  0  0  0  0  0  0  0  0  # atno 17342 bound_to 10162
  140.7277  143.2654  151.4063 LP  0  0  0  0  0  0  0  0  0  0  0  0  # atno 17343 bound_to 10162
  157.7460  131.0430  150.4721 LP  0  0  0  0  0  0  0  0  0  0  0  0  # atno 17370 bound_to 10713
  156.4915  130.4096  149.6404 LP  0  0  0  0  0  0  0  0  0  0  0  0  # atno 17371 bound_to 10713
  141.2199  133.7362  156.9061 LP  0  0  0  0  0  0  0  0  0  0  0  0  # atno 17394 bound_to 11000
  140.1543  134.9209  157.2633 LP  0  0  0  0  0  0  0  0  0  0  0  0  # atno 17395 bound_to 11000

$$$$
