AV-unprocessed.smi:699|AV-procd|sdf|3399|dock4
  -GOLD-   22720 0383D 1   1.00000     0.00000
 Structure written by MMmdl.
 34 35  0  0  0  0  0  0  0  0  1 V2000
  150.3509  137.7702  153.6677 N   0  0  0  0  0  0  0  0  0  0  0  0
  150.5512  138.9041  154.3438 C   0  0  0  0  0  0  0  0  0  0  0  0
  151.6794  139.3310  154.5833 O   0  0  0  0  0  0  0  0  0  0  0  0
  149.3034  139.6639  154.8206 C   0  0  2  0  0  0  0  0  0  0  0  0
  147.9948  139.0456  154.2991 C   0  0  0  0  0  0  0  0  0  0  0  0
  147.0226  140.2176  154.2054 C   0  0  0  0  0  0  0  0  0  0  0  0
  147.8895  141.3833  153.7367 C   0  0  0  0  0  0  0  0  0  0  0  0
  149.2803  141.1435  154.3487 C   0  0  1  0  0  0  0  0  0  0  0  0
  149.5250  142.0700  155.4529 N   0  0  0  0  0  0  0  0  0  0  0  0
  150.4524  141.9092  156.4079 C   0  0  0  0  0  0  0  0  0  0  0  0
  151.2112  140.9416  156.4591 O   0  0  0  0  0  0  0  0  0  0  0  0
  150.4184  142.9220  157.2916 N   0  0  0  0  0  0  0  0  0  0  0  0
  151.2266  143.1268  158.4430 C   0  0  0  0  0  0  0  0  0  0  0  0
  151.1636  144.3878  159.0717 C   0  0  0  0  0  0  0  0  0  0  0  0
  151.9650  144.6224  160.2069 C   0  0  0  0  0  0  0  0  0  0  0  0
  152.8039  143.7014  160.7254 N   0  0  0  0  0  0  0  0  0  0  0  0
  152.8745  142.5001  160.1141 C   0  0  0  0  0  0  0  0  0  0  0  0
  152.1167  142.1625  158.9748 C   0  0  0  0  0  0  0  0  0  0  0  0
  151.1432  137.2324  153.3473 H   0  0  0  0  0  0  0  0  0  0  0  0
  149.4111  137.4469  153.4901 H   0  0  0  0  0  0  0  0  0  0  0  0
  149.2643  139.6337  155.9117 H   0  0  0  0  0  0  0  0  0  0  0  0
  148.1278  138.6080  153.3080 H   0  0  0  0  0  0  0  0  0  0  0  0
  147.6197  138.2600  154.9560 H   0  0  0  0  0  0  0  0  0  0  0  0
  146.1873  140.0186  153.5334 H   0  0  0  0  0  0  0  0  0  0  0  0
  146.6132  140.4368  155.1924 H   0  0  0  0  0  0  0  0  0  0  0  0
  147.9672  141.3524  152.6490 H   0  0  0  0  0  0  0  0  0  0  0  0
  147.4593  142.3509  153.9992 H   0  0  0  0  0  0  0  0  0  0  0  0
  150.0264  141.3339  153.5737 H   0  0  0  0  0  0  0  0  0  0  0  0
  148.9416  142.8929  155.4906 H   0  0  0  0  0  0  0  0  0  0  0  0
  149.6872  143.6040  157.1532 H   0  0  0  0  0  0  0  0  0  0  0  0
  150.5107  145.1633  158.6981 H   0  0  0  0  0  0  0  0  0  0  0  0
  151.9317  145.5769  160.7110 H   0  0  0  0  0  0  0  0  0  0  0  0
  153.5619  141.7857  160.5426 H   0  0  0  0  0  0  0  0  0  0  0  0
  152.2439  141.1866  158.5327 H   0  0  0  0  0  0  0  0  0  0  0  0
  1  2  1  0  0  0  0
  1 19  1  0  0  0  0
  1 20  1  0  0  0  0
  2  3  2  0  0  0  0
  2  4  1  0  0  0  0
  4  8  1  0  0  0  0
  4  5  1  0  0  0  0
  4 21  1  0  0  0  0
  5  6  1  0  0  0  0
  5 22  1  0  0  0  0
  5 23  1  0  0  0  0
  6  7  1  0  0  0  0
  6 24  1  0  0  0  0
  6 25  1  0  0  0  0
  7  8  1  0  0  0  0
  7 26  1  0  0  0  0
  7 27  1  0  0  0  0
  8  9  1  0  0  0  0
  8 28  1  0  0  0  0
  9 10  1  0  0  0  0
  9 29  1  0  0  0  0
 10 11  2  0  0  0  0
 10 12  1  0  0  0  0
 12 13  1  0  0  0  0
 12 30  1  0  0  0  0
 13 18  1  0  0  0  0
 13 14  2  0  0  0  0
 14 15  1  0  0  0  0
 14 31  1  0  0  0  0
 15 16  2  0  0  0  0
 15 32  1  0  0  0  0
 16 17  1  0  0  0  0
 17 18  2  0  0  0  0
 17 33  1  0  0  0  0
 18 34  1  0  0  0  0
M  END
> <s_m_source_file>
AV-unprocessed.smi

> <i_m_source_file_index>
699

> <i_lp_mmshare_version>
43012

> <i_f3d_flags>
0

> <s_epik_input>
W05IMl1DKD1PKVtDQEBIXTFbQ0gyXVtDSDJdW0NIMl1bQ0BIXTFbTkhdQyg9TylbTkhdYzJbY0hdW2NIXW5bY0hdW2NIXTI=

> <s_epik_cmdline>
J2VwaWtfcHl0aG9uJywgJy1waCcsICc3LjAnLCAnLXRuJywgJzgnLCAnLW1hJywgJzIwMCcsICctbWV0YWxfYmluZGluZycsICctaW1hZScsICc8aW5maWxlLm1hZT4nLCAnLW9tYWUnLCAnPG91dGZpbGUubWFlPic=

> <r_epik_Ionization_Penalty>
0.113907

> <r_epik_Ionization_Penalty_Charging>
0

> <r_epik_Ionization_Penalty_Neutral>
0.113907

> <r_epik_State_Penalty>
0.103543

> <r_epik_Charging_Adjusted_Penalty>
0.103543

> <i_epik_Tot_Q>
0

> <i_epik_Tot_abs_Q>
0

> <r_epik_Metal_State_Penalty>
0.0867106

> <b_epik_Metal_Only>
0

> <s_lp_Force_Field>
OPLS_2005

> <r_lp_Energy>
19.5976

> <b_lp_Chiralities_Consistent>
1

> <s_lp_Variant>
AV-unprocessed.smi:699-1

> <Gold.Version>
5.8.1

> <Gold.Id.Protein>
6NUR|6NUR_protein|mol2

> <Gold.PLP.Fitness>
46.6323

> <Gold.PLP.PLP>
-37.2412

> <Gold.PLP.part.hbond>
-5.0000

> <Gold.PLP.part.metal>
0.0000

> <Gold.PLP.part.buried>
-4.4796

> <Gold.PLP.part.nonpolar>
-28.8866

> <Gold.PLP.part.repulsive>
0.4185

> <Gold.PLP.ligand.clash>
0.0000

> <Gold.PLP.ligand.torsion>
0.3327

> <Gold.PLP.Chemscore.Hbond>
3.3510

> <Gold.PLP.Chemscore.CHOScore>
0.0000

> <Gold.PLP.Chemscore.Metal>
0.0000

> <Gold.Chemscore.Hbonds>
donor molecule, donor type, donor heavy atom, donor atom, acceptor molecule, acceptor atom, score
      L1  H     1    19       P1  7949  0.24
      L1  H     1    20       P1  7948  0.39
      L1  H     9    29       P1  8028  0.94
      L1  H    12    30       P1  8028  0.80
      P1  H  7989  7998       L1     3  0.95

> <Gold.PLP.Chemscore.Internal.Correction>
0.0034

> <Gold.Rescore>
     Score         DG    S(hbond)    S(metal)    S(lipo)     H(rot)  DE(clash)    DE(int)     intcor
     14.35     -20.03       2.53        0.00      84.55       1.49       0.04       5.64       ----

> <Gold.Chemscore.Fitness>
14.3507

> <Gold.Chemscore.DG>
-20.0262

> <Gold.Chemscore.ZeroCoef>
-5.4800

> <Gold.Chemscore.Hbond>
2.5348

> <Gold.Chemscore.Metal>
0.0000

> <Gold.Chemscore.Lipo>
84.5494

> <Gold.Chemscore.Internal_Hbond>
0.0000

> <Gold.Chemscore.DEClash>
0.0356

> <Gold.Chemscore.DEInternal>
5.6399

> <Gold.Chemscore.Rot>
1.4892

> <Gold.Chemscore.Internal.Correction>
   9.000000E+99

> <Gold.Chemscore.Hbonds>
donor molecule, donor type, donor heavy atom, donor atom, acceptor molecule, acceptor atom, score
      L1  H     1    19       P1  7949  0.12
      L1  H     1    20       P1  7948  0.34
      L1  H     9    29       P1  8028  0.91
      L1  H    12    30       P1  8028  0.68
      P1  H  7989  7998       L1     3  0.21

> <Gold.Chemscore.Hbond.Weighted>
-8.4662

> <Gold.Chemscore.Metal.Weighted>
-0.0000

> <Gold.Chemscore.Lipo.Weighted>
-9.8923

> <Gold.Chemscore.Internal_Hbond.Weighted>
0.0000

> <Gold.Chemscore.DEClash.Weighted>
0.0356

> <Gold.Chemscore.DEInternal.Weighted>
5.6399

> <Gold.Chemscore.Rot.Weighted>
3.8123

> <Gold.Chemscore.Internal.Correction.Weighted>
   9.000000E+99

> <Gold.Protein.RotatedTorsions>
[ 6907 6896 6895 6894 ] final -168.59 input  -60.11 | X-H torsion
[ 7974 7965 7964 7962 ] final  -91.65 input  175.53 | X-H torsion
[ 8008 7997 7996 7995 ] final -165.94 input   59.86 | X-H torsion
[ 10167 10162 10161 10158 ] final   36.10 input  -65.29 | X-H torsion
[ 10718 10713 10712 10709 ] final -140.36 input   66.30 | X-H torsion
[ 10763 10752 10751 10750 ] final  -71.02 input  -60.55 | X-H torsion
[ 11005 11000 10999 10996 ] final -115.62 input  -57.11 | X-H torsion

> <Gold.Protein.ActiveResidues>
 VAL166  LYS551  ARG553  GLY616  TRP617  ASP618  TYR619  PRO620  LYS621  CYS622 
 ASP623  PHE694  ASN695  SER759  ASP760  ASP761  ALA762  ILE779  LEU786  VAL792 
 PHE793  MET794  SER795  GLU796  ALA797  LYS798  CYS799  TRP800  GLU811  SER814 

> <Gold.Protein.RotatedAtoms>
  151.4780  133.3553  159.2833 H   0  0  0  0  0  0  0  0  0  0  0  0  # atno 6907 bound_to 6896
  150.8916  134.8323  159.7308 H   0  0  0  0  0  0  0  0  0  0  0  0  # atno 6908 bound_to 6896
  152.4826  134.4690  159.9681 H   0  0  0  0  0  0  0  0  0  0  0  0  # atno 6909 bound_to 6896
  145.4102  140.9544  143.2238 H   0  0  0  0  0  0  0  0  0  0  0  0  # atno 7974 bound_to 7965
  155.8569  140.0972  157.1638 H   0  0  0  0  0  0  0  0  0  0  0  0  # atno 8008 bound_to 7997
  154.3988  140.1372  156.3975 H   0  0  0  0  0  0  0  0  0  0  0  0  # atno 8009 bound_to 7997
  155.7899  140.3456  155.5346 H   0  0  0  0  0  0  0  0  0  0  0  0  # atno 8010 bound_to 7997
  140.4160  144.1527  150.6143 H   0  0  0  0  0  0  0  0  0  0  0  0  # atno 10167 bound_to 10162
  156.3214  130.7536  151.1635 H   0  0  0  0  0  0  0  0  0  0  0  0  # atno 10718 bound_to 10713
  154.4259  135.5975  153.6038 H   0  0  0  0  0  0  0  0  0  0  0  0  # atno 10763 bound_to 10752
  152.9796  135.5963  154.3898 H   0  0  0  0  0  0  0  0  0  0  0  0  # atno 10764 bound_to 10752
  154.3730  135.2841  155.2234 H   0  0  0  0  0  0  0  0  0  0  0  0  # atno 10765 bound_to 10752
  141.0476  133.9739  157.2892 H   0  0  0  0  0  0  0  0  0  0  0  0  # atno 11005 bound_to 11000
  144.8314  139.5622  143.6942 LP  0  0  0  0  0  0  0  0  0  0  0  0  # atno 17320 bound_to 7965
  146.2708  139.6631  142.9297 LP  0  0  0  0  0  0  0  0  0  0  0  0  # atno 17321 bound_to 7965
  140.4586  143.2457  151.9250 LP  0  0  0  0  0  0  0  0  0  0  0  0  # atno 17342 bound_to 10162
  139.4782  144.5490  151.8415 LP  0  0  0  0  0  0  0  0  0  0  0  0  # atno 17343 bound_to 10162
  157.7412  131.0506  150.5110 LP  0  0  0  0  0  0  0  0  0  0  0  0  # atno 17370 bound_to 10713
  156.5263  130.4174  149.6224 LP  0  0  0  0  0  0  0  0  0  0  0  0  # atno 17371 bound_to 10713
  139.9324  135.0199  156.8444 LP  0  0  0  0  0  0  0  0  0  0  0  0  # atno 17394 bound_to 11000
  140.6118  134.0076  155.7580 LP  0  0  0  0  0  0  0  0  0  0  0  0  # atno 17395 bound_to 11000

$$$$
