AV-unprocessed.smi:115|AV-procd|sdf|1125|dock7
  -GOLD-   2262018253D 1   1.00000     0.00000
 Structure written by MMmdl.
 55 57  0  0  0  0  0  0  0  0  1 V2000
  155.6910  140.8564  165.6213 C   0  0  0  0  0  0  0  0  0  0  0  0
  156.6151  141.4140  164.6987 O   0  0  0  0  0  0  0  0  0  0  0  0
  157.8390  140.6970  164.5998 C   0  0  0  0  0  0  0  0  0  0  0  0
  157.5944  139.1869  164.3708 C   0  0  2  0  0  0  0  0  0  0  0  0
  158.8738  138.3960  164.0481 C   0  0  0  0  0  0  0  0  0  0  0  0
  156.5187  138.9081  163.4045 N   0  0  0  0  0  0  0  0  0  0  0  0
  155.3339  138.2505  163.7307 C   0  0  0  0  0  0  0  0  0  0  0  0
  155.0184  137.7431  165.1027 C   0  0  0  0  0  0  0  0  0  0  0  0
  154.5687  138.1814  162.6065 C   0  0  0  0  0  0  0  0  0  0  0  0
  155.2803  138.7803  161.5321 C   0  0  0  0  0  0  0  0  0  0  0  0
  154.8423  138.9752  160.1222 C   0  0  0  0  0  0  0  0  0  0  0  0
  155.6209  139.2413  159.2073 O   0  0  0  0  0  0  0  0  0  0  0  0
  153.3403  138.8401  159.8164 C   0  0  0  0  0  0  0  0  0  0  0  0
  152.8326  140.0079  159.1088 N   0  0  0  0  0  0  0  0  0  0  0  0
  152.1195  139.7859  157.9035 C   0  0  0  0  0  0  0  0  0  0  0  0
  151.9292  138.6541  157.4549 O   0  0  0  0  0  0  0  0  0  0  0  0
  151.6454  140.9988  157.2457 C   0  0  0  0  0  0  0  0  0  0  0  0
  150.9639  140.9059  156.0913 F   0  0  0  0  0  0  0  0  0  0  0  0
  151.8823  142.2176  157.7764 C   0  0  0  0  0  0  0  0  0  0  0  0
  152.5769  142.4047  158.9591 N   0  0  0  0  0  0  0  0  0  0  0  0
  152.8210  143.7926  159.5051 C   0  0  1  0  0  0  0  0  0  0  0  0
  152.3755  144.8514  158.4892 C   0  0  0  0  0  0  0  0  0  0  0  0
  151.0129  145.2463  159.0174 C   0  0  0  0  0  0  0  0  0  0  0  0
  151.2105  145.0968  160.5209 C   0  0  0  0  0  0  0  0  0  0  0  0
  152.0576  143.9618  160.6649 O   0  0  0  0  0  0  0  0  0  0  0  0
  153.0938  141.2892  159.6537 C   0  0  0  0  0  0  0  0  0  0  0  0
  153.7549  141.4376  160.6841 O   0  0  0  0  0  0  0  0  0  0  0  0
  156.4957  139.1967  162.0311 C   0  0  0  0  0  0  0  0  0  0  0  0
  157.6505  139.8520  161.3240 C   0  0  0  0  0  0  0  0  0  0  0  0
  154.7881  141.4667  165.6436 H   0  0  0  0  0  0  0  0  0  0  0  0
  156.0918  140.8194  166.6342 H   0  0  0  0  0  0  0  0  0  0  0  0
  155.4026  139.8471  165.3248 H   0  0  0  0  0  0  0  0  0  0  0  0
  158.4649  141.1212  163.8123 H   0  0  0  0  0  0  0  0  0  0  0  0
  158.3691  140.8607  165.5358 H   0  0  0  0  0  0  0  0  0  0  0  0
  157.2584  138.8056  165.3310 H   0  0  0  0  0  0  0  0  0  0  0  0
  159.6196  138.5315  164.8317 H   0  0  0  0  0  0  0  0  0  0  0  0
  159.3317  138.6984  163.1085 H   0  0  0  0  0  0  0  0  0  0  0  0
  158.6632  137.3283  163.9812 H   0  0  0  0  0  0  0  0  0  0  0  0
  154.0811  137.1862  165.1039 H   0  0  0  0  0  0  0  0  0  0  0  0
  154.9144  138.5659  165.8106 H   0  0  0  0  0  0  0  0  0  0  0  0
  155.7995  137.0729  165.4624 H   0  0  0  0  0  0  0  0  0  0  0  0
  153.5834  137.7412  162.5732 H   0  0  0  0  0  0  0  0  0  0  0  0
  153.0897  137.9644  159.2192 H   0  0  0  0  0  0  0  0  0  0  0  0
  152.7728  138.7184  160.7396 H   0  0  0  0  0  0  0  0  0  0  0  0
  151.5115  143.0796  157.2418 H   0  0  0  0  0  0  0  0  0  0  0  0
  153.8800  143.8486  159.7611 H   0  0  0  0  0  0  0  0  0  0  0  0
  153.0652  145.6948  158.5420 H   0  0  0  0  0  0  0  0  0  0  0  0
  152.3626  144.4689  157.4676 H   0  0  0  0  0  0  0  0  0  0  0  0
  150.7145  146.2530  158.7243 H   0  0  0  0  0  0  0  0  0  0  0  0
  150.2536  144.5479  158.6641 H   0  0  0  0  0  0  0  0  0  0  0  0
  151.7196  145.9716  160.9277 H   0  0  0  0  0  0  0  0  0  0  0  0
  150.2718  144.9666  161.0595 H   0  0  0  0  0  0  0  0  0  0  0  0
  157.6998  139.5573  160.2771 H   0  0  0  0  0  0  0  0  0  0  0  0
  158.6110  139.5679  161.7434 H   0  0  0  0  0  0  0  0  0  0  0  0
  157.5645  140.9378  161.3641 H   0  0  0  0  0  0  0  0  0  0  0  0
  1  2  1  0  0  0  0
  1 30  1  0  0  0  0
  1 31  1  0  0  0  0
  1 32  1  0  0  0  0
  2  3  1  0  0  0  0
  3  4  1  0  0  0  0
  3 33  1  0  0  0  0
  3 34  1  0  0  0  0
  4  5  1  0  0  0  0
  4  6  1  0  0  0  0
  4 35  1  0  0  0  0
  5 36  1  0  0  0  0
  5 37  1  0  0  0  0
  5 38  1  0  0  0  0
  6 28  1  0  0  0  0
  6  7  1  0  0  0  0
  7  8  1  0  0  0  0
  7  9  2  0  0  0  0
  8 39  1  0  0  0  0
  8 40  1  0  0  0  0
  8 41  1  0  0  0  0
  9 10  1  0  0  0  0
  9 42  1  0  0  0  0
 10 11  1  0  0  0  0
 10 28  2  0  0  0  0
 11 12  2  0  0  0  0
 11 13  1  0  0  0  0
 13 14  1  0  0  0  0
 13 43  1  0  0  0  0
 13 44  1  0  0  0  0
 14 26  1  0  0  0  0
 14 15  1  0  0  0  0
 15 16  2  0  0  0  0
 15 17  1  0  0  0  0
 17 18  1  0  0  0  0
 17 19  2  0  0  0  0
 19 20  1  0  0  0  0
 19 45  1  0  0  0  0
 20 21  1  0  0  0  0
 20 26  1  0  0  0  0
 21 25  1  0  0  0  0
 21 22  1  0  0  0  0
 21 46  1  0  0  0  0
 22 23  1  0  0  0  0
 22 47  1  0  0  0  0
 22 48  1  0  0  0  0
 23 24  1  0  0  0  0
 23 49  1  0  0  0  0
 23 50  1  0  0  0  0
 24 25  1  0  0  0  0
 24 51  1  0  0  0  0
 24 52  1  0  0  0  0
 26 27  2  0  0  0  0
 28 29  1  0  0  0  0
 29 53  1  0  0  0  0
 29 54  1  0  0  0  0
 29 55  1  0  0  0  0
M  END
> <s_m_source_file>
AV-unprocessed.smi

> <i_m_source_file_index>
115

> <i_lp_mmshare_version>
43012

> <i_f3d_flags>
0

> <s_epik_input>
W0NIM11PW0NIMl1bQ0BIXShbQ0gzXSluMWMoW0NIM10pW2NIXWMoYzFbQ0gzXSlDKD1PKVtDSDJdbjJjKD1PKWMoRilbY0hdbihjMj1PKVtDQEBIXTNbQ0gyXVtDSDJdW0NIMl1PMw==

> <s_epik_cmdline>
J2VwaWtfcHl0aG9uJywgJy1waCcsICc3LjAnLCAnLXRuJywgJzgnLCAnLW1hJywgJzIwMCcsICctbWV0YWxfYmluZGluZycsICctaW1hZScsICc8aW5maWxlLm1hZT4nLCAnLW9tYWUnLCAnPG91dGZpbGUubWFlPic=

> <r_lp_tautomer_probability>
1

> <r_epik_Ionization_Penalty>
5.02611e-09

> <r_epik_Ionization_Penalty_Charging>
5.01743e-09

> <r_epik_Ionization_Penalty_Neutral>
8.68114e-12

> <r_epik_State_Penalty>
-0

> <r_epik_Charging_Adjusted_Penalty>
5.01743e-09

> <i_epik_Tot_Q>
0

> <i_epik_Tot_abs_Q>
0

> <r_epik_Metal_State_Penalty>
-0

> <b_epik_Metal_Only>
0

> <s_epik_Chemistry_Notes>
This compound contains an acetal/aminal-like group ( X-CH(R)-Y where X, Y are N, S, or O) that may be acid/base labile, releasing an aldehyde.

> <s_lp_Force_Field>
OPLS_2005

> <r_lp_Energy>
51.0988

> <b_lp_Chiralities_Consistent>
1

> <s_lp_Variant>
AV-unprocessed.smi:115-3

> <Gold.Version>
5.8.1

> <Gold.Id.Protein>
6NUR|6NUR_protein|mol2

> <Gold.PLP.Fitness>
49.7251

> <Gold.PLP.PLP>
-47.5736

> <Gold.PLP.part.hbond>
-1.9963

> <Gold.PLP.part.metal>
0.0000

> <Gold.PLP.part.buried>
-6.8957

> <Gold.PLP.part.nonpolar>
-38.4316

> <Gold.PLP.part.repulsive>
0.0796

> <Gold.PLP.ligand.clash>
0.0057

> <Gold.PLP.ligand.torsion>
0.5761

> <Gold.PLP.Chemscore.Hbond>
1.0000

> <Gold.PLP.Chemscore.CHOScore>
0.0000

> <Gold.PLP.Chemscore.Metal>
0.0000

> <Gold.Chemscore.Hbonds>
donor molecule, donor type, donor heavy atom, donor atom, acceptor molecule, acceptor atom, score
      P1  H  7997  8008       L1    12  1.00

> <Gold.PLP.Chemscore.Internal.Correction>
0.3094

> <Gold.Rescore>
     Score         DG    S(hbond)    S(metal)    S(lipo)     H(rot)  DE(clash)    DE(int)     intcor
     10.65     -14.03       0.99        0.00      92.81       2.19       0.39       3.00       ----

> <Gold.Chemscore.Fitness>
10.6455

> <Gold.Chemscore.DG>
-14.0349

> <Gold.Chemscore.ZeroCoef>
-5.4800

> <Gold.Chemscore.Hbond>
0.9918

> <Gold.Chemscore.Metal>
0.0000

> <Gold.Chemscore.Lipo>
92.8071

> <Gold.Chemscore.Internal_Hbond>
0.0000

> <Gold.Chemscore.DEClash>
0.3875

> <Gold.Chemscore.DEInternal>
3.0019

> <Gold.Chemscore.Rot>
2.1938

> <Gold.Chemscore.Internal.Correction>
   9.000000E+99

> <Gold.Chemscore.Hbonds>
donor molecule, donor type, donor heavy atom, donor atom, acceptor molecule, acceptor atom, score
      P1  H  7997  8008       L1    12  0.94

> <Gold.Chemscore.Hbond.Weighted>
-3.3125

> <Gold.Chemscore.Metal.Weighted>
-0.0000

> <Gold.Chemscore.Lipo.Weighted>
-10.8584

> <Gold.Chemscore.Internal_Hbond.Weighted>
0.0000

> <Gold.Chemscore.DEClash.Weighted>
0.3875

> <Gold.Chemscore.DEInternal.Weighted>
3.0019

> <Gold.Chemscore.Rot.Weighted>
5.6160

> <Gold.Chemscore.Internal.Correction.Weighted>
   9.000000E+99

> <Gold.Protein.RotatedTorsions>
[ 6907 6896 6895 6894 ] final  161.78 input  -60.11 | X-H torsion
[ 7974 7965 7964 7962 ] final  168.28 input  175.53 | X-H torsion
[ 8008 7997 7996 7995 ] final -143.00 input   59.86 | X-H torsion
[ 10167 10162 10161 10158 ] final -179.46 input  -65.29 | X-H torsion
[ 10718 10713 10712 10709 ] final  -26.73 input   66.30 | X-H torsion
[ 10763 10752 10751 10750 ] final   15.54 input  -60.55 | X-H torsion
[ 11005 11000 10999 10996 ] final   15.02 input  -57.11 | X-H torsion

> <Gold.Protein.ActiveResidues>
 VAL166  LYS551  ARG553  GLY616  TRP617  ASP618  TYR619  PRO620  LYS621  CYS622 
 ASP623  PHE694  ASN695  SER759  ASP760  ASP761  ALA762  ILE779  LEU786  VAL792 
 PHE793  MET794  SER795  GLU796  ALA797  LYS798  CYS799  TRP800  GLU811  SER814 

> <Gold.Protein.RotatedAtoms>
  151.9504  133.3664  159.3997 H   0  0  0  0  0  0  0  0  0  0  0  0  # atno 6907 bound_to 6896
  150.6982  134.4346  159.5273 H   0  0  0  0  0  0  0  0  0  0  0  0  # atno 6908 bound_to 6896
  152.2018  134.8580  160.0558 H   0  0  0  0  0  0  0  0  0  0  0  0  # atno 6909 bound_to 6896
  144.7394  139.8884  143.6401 H   0  0  0  0  0  0  0  0  0  0  0  0  # atno 7974 bound_to 7965
  155.5034  140.0577  157.2935 H   0  0  0  0  0  0  0  0  0  0  0  0  # atno 8008 bound_to 7997
  154.4578  140.1982  156.0278 H   0  0  0  0  0  0  0  0  0  0  0  0  # atno 8009 bound_to 7997
  156.0833  140.3244  155.7726 H   0  0  0  0  0  0  0  0  0  0  0  0  # atno 8010 bound_to 7997
  139.5385  144.2428  152.0846 H   0  0  0  0  0  0  0  0  0  0  0  0  # atno 10167 bound_to 10162
  156.4474  130.4477  149.7012 H   0  0  0  0  0  0  0  0  0  0  0  0  # atno 10718 bound_to 10713
  153.1515  135.6779  153.8875 H   0  0  0  0  0  0  0  0  0  0  0  0  # atno 10763 bound_to 10752
  153.8300  135.3119  155.3419 H   0  0  0  0  0  0  0  0  0  0  0  0  # atno 10764 bound_to 10752
  154.7866  135.4859  154.0045 H   0  0  0  0  0  0  0  0  0  0  0  0  # atno 10765 bound_to 10752
  140.4630  134.1108  155.7719 H   0  0  0  0  0  0  0  0  0  0  0  0  # atno 11005 bound_to 11000
  146.1160  139.4171  143.0258 LP  0  0  0  0  0  0  0  0  0  0  0  0  # atno 17320 bound_to 7965
  145.7374  141.0020  143.1319 LP  0  0  0  0  0  0  0  0  0  0  0  0  # atno 17321 bound_to 7965
  140.1903  144.4758  150.6482 LP  0  0  0  0  0  0  0  0  0  0  0  0  # atno 17342 bound_to 10162
  140.6604  143.2250  151.5869 LP  0  0  0  0  0  0  0  0  0  0  0  0  # atno 17343 bound_to 10162
  156.3852  130.7599  151.2595 LP  0  0  0  0  0  0  0  0  0  0  0  0  # atno 17370 bound_to 10713
  157.7504  131.0284  150.4047 LP  0  0  0  0  0  0  0  0  0  0  0  0  # atno 17371 bound_to 10713
  141.1612  133.8789  157.1841 LP  0  0  0  0  0  0  0  0  0  0  0  0  # atno 17394 bound_to 11000
  139.9933  135.0056  157.0025 LP  0  0  0  0  0  0  0  0  0  0  0  0  # atno 17395 bound_to 11000

$$$$
