AV-unprocessed.smi:2062|AV-procd|sdf|8396|dock3
  -GOLD-   2272011 83D 1   1.00000     0.00000
 Structure written by MMmdl.
 43 44  0  0  0  0  0  0  0  0  2 V2000
  152.7535  141.2889  159.4276 C   0  0  0  0  0  0  0  0  0  0  0  0
  152.2415  140.8013  158.0640 C   0  0  0  0  0  0  0  0  0  0  0  0
  151.1174  141.7189  157.5544 C   0  0  0  0  0  0  0  0  0  0  0  0
  151.7855  139.3292  158.1508 C   0  0  0  0  0  0  0  0  0  0  0  0
  151.3934  138.7643  156.8341 N   0  3  1  0  0  0  0  0  0  0  0  0
  152.4430  138.8963  155.7936 C   0  0  0  0  0  0  0  0  0  0  0  0
  151.9470  138.3240  154.4561 C   0  0  0  0  0  0  0  0  0  0  0  0
  151.5549  136.9689  154.6351 O   0  0  0  0  0  0  0  0  0  0  0  0
  150.4782  136.8360  155.5561 C   0  0  1  0  0  0  0  0  0  0  0  0
  150.0601  135.3528  155.5781 C   0  0  0  0  0  0  0  0  0  0  0  0
  149.2286  134.9837  154.4363 N   0  0  0  0  0  0  0  0  0  0  0  0
  148.6030  133.8066  154.2930 C   0  0  0  0  0  0  0  0  0  0  0  0
  148.6754  132.8982  155.1209 O   0  0  0  0  0  0  0  0  0  0  0  0
  147.9075  133.7585  153.1434 N   0  0  0  0  0  0  0  0  0  0  0  0
  147.1325  132.6841  152.6333 C   0  0  0  0  0  0  0  0  0  0  0  0
  147.0853  131.4626  153.1781 N   0  0  0  0  0  0  0  0  0  0  0  0
  146.2426  130.6038  152.4683 C   0  0  0  0  0  0  0  0  0  0  0  0
  145.6543  131.1912  151.3760 C   0  0  0  0  0  0  0  0  0  0  0  0
  146.1362  132.8570  151.1957 S   0  0  0  0  0  0  0  0  0  0  0  0
  150.9370  137.3578  156.9342 C   0  0  0  0  0  0  0  0  0  0  0  0
  151.9677  141.2530  160.1830 H   0  0  0  0  0  0  0  0  0  0  0  0
  153.1113  142.3174  159.3687 H   0  0  0  0  0  0  0  0  0  0  0  0
  153.5825  140.6743  159.7805 H   0  0  0  0  0  0  0  0  0  0  0  0
  153.0778  140.8770  157.3694 H   0  0  0  0  0  0  0  0  0  0  0  0
  150.2498  141.6866  158.2143 H   0  0  0  0  0  0  0  0  0  0  0  0
  150.7873  141.4314  156.5560 H   0  0  0  0  0  0  0  0  0  0  0  0
  151.4528  142.7548  157.4987 H   0  0  0  0  0  0  0  0  0  0  0  0
  152.5680  138.7076  158.5889 H   0  0  0  0  0  0  0  0  0  0  0  0
  150.9386  139.2754  158.8368 H   0  0  0  0  0  0  0  0  0  0  0  0
  152.7186  139.9415  155.6569 H   0  0  0  0  0  0  0  0  0  0  0  0
  153.3430  138.3673  156.1111 H   0  0  0  0  0  0  0  0  0  0  0  0
  151.1144  138.9104  154.0640 H   0  0  0  0  0  0  0  0  0  0  0  0
  152.7430  138.3650  153.7125 H   0  0  0  0  0  0  0  0  0  0  0  0
  149.6402  137.4377  155.1992 H   0  0  0  0  0  0  0  0  0  0  0  0
  150.9445  134.7141  155.6030 H   0  0  0  0  0  0  0  0  0  0  0  0
  149.5007  135.1377  156.4889 H   0  0  0  0  0  0  0  0  0  0  0  0
  149.1123  135.6782  153.7128 H   0  0  0  0  0  0  0  0  0  0  0  0
  147.9362  134.5847  152.5643 H   0  0  0  0  0  0  0  0  0  0  0  0
  146.1188  129.5874  152.8117 H   0  0  0  0  0  0  0  0  0  0  0  0
  144.9689  130.7466  150.6699 H   0  0  0  0  0  0  0  0  0  0  0  0
  151.7457  136.7375  157.3244 H   0  0  0  0  0  0  0  0  0  0  0  0
  150.1131  137.2976  157.6462 H   0  0  0  0  0  0  0  0  0  0  0  0
  150.5941  139.2963  156.5196 H   0  0  0  0  0  0  0  0  0  0  0  0
  1  2  1  0  0  0  0
  1 21  1  0  0  0  0
  1 22  1  0  0  0  0
  1 23  1  0  0  0  0
  2  3  1  0  0  0  0
  2  4  1  0  0  0  0
  2 24  1  0  0  0  0
  3 25  1  0  0  0  0
  3 26  1  0  0  0  0
  3 27  1  0  0  0  0
  4  5  1  0  0  0  0
  4 28  1  0  0  0  0
  4 29  1  0  0  0  0
  5 20  1  0  0  0  0
  5  6  1  0  0  0  0
  5 43  1  0  0  0  0
  6  7  1  0  0  0  0
  6 30  1  0  0  0  0
  6 31  1  0  0  0  0
  7  8  1  0  0  0  0
  7 32  1  0  0  0  0
  7 33  1  0  0  0  0
  8  9  1  0  0  0  0
  9 10  1  0  0  0  0
  9 20  1  0  0  0  0
  9 34  1  0  0  0  0
 10 11  1  0  0  0  0
 10 35  1  0  0  0  0
 10 36  1  0  0  0  0
 11 12  1  0  0  0  0
 11 37  1  0  0  0  0
 12 13  2  0  0  0  0
 12 14  1  0  0  0  0
 14 15  1  0  0  0  0
 14 38  1  0  0  0  0
 15 19  1  0  0  0  0
 15 16  2  0  0  0  0
 16 17  1  0  0  0  0
 17 18  2  0  0  0  0
 17 39  1  0  0  0  0
 18 19  1  0  0  0  0
 18 40  1  0  0  0  0
 20 41  1  0  0  0  0
 20 42  1  0  0  0  0
M  CHG  1   5   1
M  END
> <s_m_source_file>
AV-unprocessed.smi

> <i_m_source_file_index>
2062

> <i_lp_mmshare_version>
43012

> <i_f3d_flags>
0

> <s_epik_input>
W0NIM11bQ0hdKFtDSDNdKVtDSDJdTjFbQ0gyXVtDSDJdT1tDQEhdKFtDSDJdMSlbQ0gyXVtOSF1DKD1PKVtOSF1jMm5bY0hdW2NIXXMy

> <s_epik_cmdline>
J2VwaWtfcHl0aG9uJywgJy1waCcsICc3LjAnLCAnLXRuJywgJzgnLCAnLW1hJywgJzIwMCcsICctbWV0YWxfYmluZGluZycsICctaW1hZScsICc8aW5maWxlLm1hZT4nLCAnLW9tYWUnLCAnPG91dGZpbGUubWFlPic=

> <r_lp_tautomer_probability>
0.999

> <r_epik_Ionization_Penalty>
0.0985527

> <r_epik_Ionization_Penalty_Charging>
0.098413

> <r_epik_Ionization_Penalty_Neutral>
0.000139681

> <r_epik_State_Penalty>
0.0884988

> <r_epik_Charging_Adjusted_Penalty>
0.186912

> <i_epik_Tot_Q>
1

> <i_epik_Tot_abs_Q>
1

> <r_epik_Metal_State_Penalty>
0.141792

> <b_epik_Metal_Only>
0

> <s_lp_Force_Field>
OPLS_2005

> <r_lp_Energy>
15.1925

> <b_lp_Chiralities_Consistent>
1

> <s_lp_Variant>
AV-unprocessed.smi:2062-1

> <Gold.Version>
5.8.1

> <Gold.Id.Protein>
6NUR|6NUR_protein|mol2

> <Gold.PLP.Fitness>
42.1279

> <Gold.PLP.PLP>
-33.4495

> <Gold.PLP.part.hbond>
-3.0000

> <Gold.PLP.part.metal>
0.0000

> <Gold.PLP.part.buried>
-5.9083

> <Gold.PLP.part.nonpolar>
-25.1724

> <Gold.PLP.part.repulsive>
0.3378

> <Gold.PLP.ligand.clash>
0.0000

> <Gold.PLP.ligand.torsion>
0.2310

> <Gold.PLP.Chemscore.Hbond>
3.0000

> <Gold.PLP.Chemscore.CHOScore>
0.0000

> <Gold.PLP.Chemscore.Metal>
0.0000

> <Gold.Chemscore.Hbonds>
donor molecule, donor type, donor heavy atom, donor atom, acceptor molecule, acceptor atom, score
      L1  H    11    37       P1  7948  1.00
      L1  H    14    38       P1  7948  0.99
      P1  H 10752 10764       L1     8  1.00

> <Gold.PLP.Chemscore.Internal.Correction>
0.1403

> <Gold.Rescore>
     Score         DG    S(hbond)    S(metal)    S(lipo)     H(rot)  DE(clash)    DE(int)     intcor
     16.70     -18.37       2.50        0.00      77.25       1.76       0.03       1.64       ----

> <Gold.Chemscore.Fitness>
16.6991

> <Gold.Chemscore.DG>
-18.3661

> <Gold.Chemscore.ZeroCoef>
-5.4800

> <Gold.Chemscore.Hbond>
2.5011

> <Gold.Chemscore.Metal>
0.0000

> <Gold.Chemscore.Lipo>
77.2455

> <Gold.Chemscore.Internal_Hbond>
0.0000

> <Gold.Chemscore.DEClash>
0.0310

> <Gold.Chemscore.DEInternal>
1.6361

> <Gold.Chemscore.Rot>
1.7599

> <Gold.Chemscore.Internal.Correction>
   9.000000E+99

> <Gold.Chemscore.Hbonds>
donor molecule, donor type, donor heavy atom, donor atom, acceptor molecule, acceptor atom, score
      L1  H    11    37       P1  7948  0.75
      L1  H    14    38       P1  7948  0.54
      P1  H 10752 10764       L1     8  0.81

> <Gold.Chemscore.Hbond.Weighted>
-8.3538

> <Gold.Chemscore.Metal.Weighted>
-0.0000

> <Gold.Chemscore.Lipo.Weighted>
-9.0377

> <Gold.Chemscore.Internal_Hbond.Weighted>
0.0000

> <Gold.Chemscore.DEClash.Weighted>
0.0310

> <Gold.Chemscore.DEInternal.Weighted>
1.6361

> <Gold.Chemscore.Rot.Weighted>
4.5054

> <Gold.Chemscore.Internal.Correction.Weighted>
   9.000000E+99

> <Gold.Protein.RotatedTorsions>
[ 6907 6896 6895 6894 ] final   -0.61 input  -60.11 | X-H torsion
[ 7974 7965 7964 7962 ] final  179.32 input  175.53 | X-H torsion
[ 8008 7997 7996 7995 ] final  137.43 input   59.86 | X-H torsion
[ 10167 10162 10161 10158 ] final  -62.98 input  -65.29 | X-H torsion
[ 10718 10713 10712 10709 ] final  119.86 input   66.30 | X-H torsion
[ 10763 10752 10751 10750 ] final  -85.22 input  -60.55 | X-H torsion
[ 11005 11000 10999 10996 ] final  -74.32 input  -57.11 | X-H torsion

> <Gold.Protein.ActiveResidues>
 VAL166  LYS551  ARG553  GLY616  TRP617  ASP618  TYR619  PRO620  LYS621  CYS622 
 ASP623  PHE694  ASN695  SER759  ASP760  ASP761  ALA762  ILE779  LEU786  VAL792 
 PHE793  MET794  SER795  GLU796  ALA797  LYS798  CYS799  TRP800  GLU811  SER814 

> <Gold.Protein.RotatedAtoms>
  151.5594  135.1066  159.9968 H   0  0  0  0  0  0  0  0  0  0  0  0  # atno 6907 bound_to 6896
  152.4454  133.7522  159.6711 H   0  0  0  0  0  0  0  0  0  0  0  0  # atno 6908 bound_to 6896
  150.8368  133.7932  159.3100 H   0  0  0  0  0  0  0  0  0  0  0  0  # atno 6909 bound_to 6896
  144.7147  140.0531  143.6434 H   0  0  0  0  0  0  0  0  0  0  0  0  # atno 7974 bound_to 7965
  156.3002  140.2420  156.3908 H   0  0  0  0  0  0  0  0  0  0  0  0  # atno 8008 bound_to 7997
  154.8616  140.0420  157.1688 H   0  0  0  0  0  0  0  0  0  0  0  0  # atno 8009 bound_to 7997
  154.8890  140.2960  155.5385 H   0  0  0  0  0  0  0  0  0  0  0  0  # atno 8010 bound_to 7997
  140.5902  143.2340  151.6155 H   0  0  0  0  0  0  0  0  0  0  0  0  # atno 10167 bound_to 10162
  157.5932  131.1061  150.7955 H   0  0  0  0  0  0  0  0  0  0  0  0  # atno 10718 bound_to 10713
  154.6086  135.5492  153.7449 H   0  0  0  0  0  0  0  0  0  0  0  0  # atno 10763 bound_to 10752
  153.0185  135.6384  154.1611 H   0  0  0  0  0  0  0  0  0  0  0  0  # atno 10764 bound_to 10752
  154.1549  135.2900  155.3105 H   0  0  0  0  0  0  0  0  0  0  0  0  # atno 10765 bound_to 10752
  141.1633  133.6907  156.7346 H   0  0  0  0  0  0  0  0  0  0  0  0  # atno 11005 bound_to 11000
  145.9927  139.3028  143.0975 LP  0  0  0  0  0  0  0  0  0  0  0  0  # atno 17320 bound_to 7965
  145.8884  140.9319  143.0565 LP  0  0  0  0  0  0  0  0  0  0  0  0  # atno 17321 bound_to 7965
  139.5223  144.3167  152.0946 LP  0  0  0  0  0  0  0  0  0  0  0  0  # atno 17342 bound_to 10162
  140.2331  144.4348  150.6291 LP  0  0  0  0  0  0  0  0  0  0  0  0  # atno 17343 bound_to 10162
  156.8372  130.5036  149.5325 LP  0  0  0  0  0  0  0  0  0  0  0  0  # atno 17370 bound_to 10713
  156.0989  130.5954  150.9861 LP  0  0  0  0  0  0  0  0  0  0  0  0  # atno 17371 bound_to 10713
  140.2720  134.8385  157.3855 LP  0  0  0  0  0  0  0  0  0  0  0  0  # atno 17394 bound_to 11000
  140.1513  134.4846  155.7959 LP  0  0  0  0  0  0  0  0  0  0  0  0  # atno 17395 bound_to 11000

$$$$
