AV-unprocessed.smi:1604|AV-procd|sdf|6447|dock8
  -GOLD-   22720 7103D 1   1.00000     0.00000
 Structure written by MMmdl.
 46 48  0  0  0  0  0  0  0  0  1 V2000
  150.5185  136.8823  158.9862 O   0  0  0  0  0  0  0  0  0  0  0  0
  149.4990  137.1732  158.3599 C   0  0  0  0  0  0  0  0  0  0  0  0
  149.4716  137.8136  157.1796 N   0  0  0  0  0  0  0  0  0  0  0  0
  150.5768  138.2412  156.3922 C   0  0  0  0  0  0  0  0  0  0  0  0
  151.8904  137.7824  156.6555 C   0  0  0  0  0  0  0  0  0  0  0  0
  152.9616  138.2853  155.8973 C   0  0  0  0  0  0  0  0  0  0  0  0
  152.6835  139.2447  154.9099 C   0  0  0  0  0  0  0  0  0  0  0  0
  151.4409  139.7017  154.6564 N   0  0  0  0  0  0  0  0  0  0  0  0
  150.3948  139.2157  155.3692 C   0  0  0  0  0  0  0  0  0  0  0  0
  149.1132  139.7186  155.0460 N   0  0  0  0  0  0  0  0  0  0  0  0
  148.4501  139.1918  153.8561 C   0  0  0  0  0  0  0  0  0  0  0  0
  147.6953  140.3659  153.2235 C   0  0  0  0  0  0  0  0  0  0  0  0
  147.5368  141.3548  154.3743 C   0  0  0  0  0  0  0  0  0  0  0  0
  148.8267  141.1447  155.1622 C   0  0  0  0  0  0  0  0  0  0  0  0
  148.2606  136.8640  158.7689 N   0  0  0  0  0  0  0  0  0  0  0  0
  147.9183  136.1636  160.0062 C   0  0  2  0  0  0  0  0  0  0  0  0
  147.7217  134.6491  159.7381 C   0  0  0  0  0  0  0  0  0  0  0  0
  146.8203  133.8945  160.7373 C   0  0  0  0  0  0  0  0  0  0  0  0
  147.2043  134.0461  162.2230 C   0  0  0  0  0  0  0  0  0  0  0  0
  147.3044  135.4894  162.7727 C   0  0  0  0  0  0  0  0  0  0  0  0
  146.5272  136.4775  162.0250 N   0  0  0  0  0  0  0  0  0  0  0  0
  146.7645  136.8557  160.7572 C   0  0  0  0  0  0  0  0  0  0  0  0
  146.0732  137.7089  160.2023 O   0  0  0  0  0  0  0  0  0  0  0  0
  148.5673  137.8991  156.7392 H   0  0  0  0  0  0  0  0  0  0  0  0
  152.0951  137.0719  157.4419 H   0  0  0  0  0  0  0  0  0  0  0  0
  153.9729  137.9532  156.0784 H   0  0  0  0  0  0  0  0  0  0  0  0
  153.4799  139.6622  154.3117 H   0  0  0  0  0  0  0  0  0  0  0  0
  149.1566  138.7478  153.1530 H   0  0  0  0  0  0  0  0  0  0  0  0
  147.7444  138.4185  154.1604 H   0  0  0  0  0  0  0  0  0  0  0  0
  148.3055  140.8149  152.4387 H   0  0  0  0  0  0  0  0  0  0  0  0
  146.7442  140.0693  152.7810 H   0  0  0  0  0  0  0  0  0  0  0  0
  147.4055  142.3840  154.0401 H   0  0  0  0  0  0  0  0  0  0  0  0
  146.6754  141.0821  154.9856 H   0  0  0  0  0  0  0  0  0  0  0  0
  148.7199  141.4459  156.2047 H   0  0  0  0  0  0  0  0  0  0  0  0
  149.6242  141.7380  154.7131 H   0  0  0  0  0  0  0  0  0  0  0  0
  147.4850  137.1456  158.1869 H   0  0  0  0  0  0  0  0  0  0  0  0
  148.7850  136.2697  160.6601 H   0  0  0  0  0  0  0  0  0  0  0  0
  147.2923  134.5113  158.7447 H   0  0  0  0  0  0  0  0  0  0  0  0
  148.6999  134.1679  159.7030 H   0  0  0  0  0  0  0  0  0  0  0  0
  145.7848  134.2083  160.5991 H   0  0  0  0  0  0  0  0  0  0  0  0
  146.8289  132.8347  160.4814 H   0  0  0  0  0  0  0  0  0  0  0  0
  146.4596  133.5072  162.8098 H   0  0  0  0  0  0  0  0  0  0  0  0
  148.1475  133.5316  162.4094 H   0  0  0  0  0  0  0  0  0  0  0  0
  146.9718  135.5059  163.8109 H   0  0  0  0  0  0  0  0  0  0  0  0
  148.3475  135.8059  162.8022 H   0  0  0  0  0  0  0  0  0  0  0  0
  145.7616  136.9199  162.5126 H   0  0  0  0  0  0  0  0  0  0  0  0
  1  2  2  0  0  0  0
  2  3  1  0  0  0  0
  2 15  1  0  0  0  0
  3  4  1  0  0  0  0
  3 24  1  0  0  0  0
  4  9  1  0  0  0  0
  4  5  2  0  0  0  0
  5  6  1  0  0  0  0
  5 25  1  0  0  0  0
  6  7  2  0  0  0  0
  6 26  1  0  0  0  0
  7  8  1  0  0  0  0
  7 27  1  0  0  0  0
  8  9  2  0  0  0  0
  9 10  1  0  0  0  0
 10 14  1  0  0  0  0
 10 11  1  0  0  0  0
 11 12  1  0  0  0  0
 11 28  1  0  0  0  0
 11 29  1  0  0  0  0
 12 13  1  0  0  0  0
 12 30  1  0  0  0  0
 12 31  1  0  0  0  0
 13 14  1  0  0  0  0
 13 32  1  0  0  0  0
 13 33  1  0  0  0  0
 14 34  1  0  0  0  0
 14 35  1  0  0  0  0
 15 16  1  0  0  0  0
 15 36  1  0  0  0  0
 16 22  1  0  0  0  0
 16 17  1  0  0  0  0
 16 37  1  0  0  0  0
 17 18  1  0  0  0  0
 17 38  1  0  0  0  0
 17 39  1  0  0  0  0
 18 19  1  0  0  0  0
 18 40  1  0  0  0  0
 18 41  1  0  0  0  0
 19 20  1  0  0  0  0
 19 42  1  0  0  0  0
 19 43  1  0  0  0  0
 20 21  1  0  0  0  0
 20 44  1  0  0  0  0
 20 45  1  0  0  0  0
 21 22  1  0  0  0  0
 21 46  1  0  0  0  0
 22 23  2  0  0  0  0
M  END
> <s_m_source_file>
AV-unprocessed.smi

> <i_m_source_file_index>
1604

> <i_lp_mmshare_version>
43012

> <i_f3d_flags>
0

> <s_epik_input>
Tz1DMVtOSF1bQ0gyXVtDSDJdW0NIMl1bQ0gyXVtDQEhdMVtOSF1DKD1PKVtOSF1jMltjSF1bY0hdW2NIXW5jMk4zW0NIMl1bQ0gyXVtDSDJdW0NIMl0z

> <s_epik_cmdline>
J2VwaWtfcHl0aG9uJywgJy1waCcsICc3LjAnLCAnLXRuJywgJzgnLCAnLW1hJywgJzIwMCcsICctbWV0YWxfYmluZGluZycsICctaW1hZScsICc8aW5maWxlLm1hZT4nLCAnLW9tYWUnLCAnPG91dGZpbGUubWFlPic=

> <r_lp_tautomer_probability>
1

> <r_epik_Ionization_Penalty>
0.0837267

> <r_epik_Ionization_Penalty_Charging>
0

> <r_epik_Ionization_Penalty_Neutral>
0.0837267

> <r_epik_State_Penalty>
0.0738331

> <r_epik_Charging_Adjusted_Penalty>
0.0738331

> <i_epik_Tot_Q>
0

> <i_epik_Tot_abs_Q>
0

> <r_epik_Metal_State_Penalty>
0.0646802

> <b_epik_Metal_Only>
0

> <s_lp_Force_Field>
OPLS_2005

> <r_lp_Energy>
41.479

> <b_lp_Chiralities_Consistent>
1

> <s_lp_Variant>
AV-unprocessed.smi:1604-1

> <Gold.Version>
5.8.1

> <Gold.Id.Protein>
6NUR|6NUR_protein|mol2

> <Gold.PLP.Fitness>
43.6921

> <Gold.PLP.PLP>
-35.4266

> <Gold.PLP.part.hbond>
-3.0000

> <Gold.PLP.part.metal>
0.0000

> <Gold.PLP.part.buried>
-3.2055

> <Gold.PLP.part.nonpolar>
-29.6883

> <Gold.PLP.part.repulsive>
0.4009

> <Gold.PLP.ligand.clash>
0.0000

> <Gold.PLP.ligand.torsion>
0.5500

> <Gold.PLP.Chemscore.Hbond>
3.0000

> <Gold.PLP.Chemscore.CHOScore>
0.0000

> <Gold.PLP.Chemscore.Metal>
0.0000

> <Gold.Chemscore.Hbonds>
donor molecule, donor type, donor heavy atom, donor atom, acceptor molecule, acceptor atom, score
      P1  H  6896  6909       L1     1  0.73
      P1  H  6934  6947       L1    23  0.50
      P1  H  7989  7998       L1     8  1.00

> <Gold.PLP.Chemscore.Internal.Correction>
0.3654

> <Gold.Rescore>
     Score         DG    S(hbond)    S(metal)    S(lipo)     H(rot)  DE(clash)    DE(int)     intcor
     18.28     -20.47       2.66        0.00      79.39       1.25       0.04       2.14       ----

> <Gold.Chemscore.Fitness>
18.2822

> <Gold.Chemscore.DG>
-20.4704

> <Gold.Chemscore.ZeroCoef>
-5.4800

> <Gold.Chemscore.Hbond>
2.6622

> <Gold.Chemscore.Metal>
0.0000

> <Gold.Chemscore.Lipo>
79.3903

> <Gold.Chemscore.Internal_Hbond>
0.0000

> <Gold.Chemscore.DEClash>
0.0440

> <Gold.Chemscore.DEInternal>
2.1442

> <Gold.Chemscore.Rot>
1.2461

> <Gold.Chemscore.Internal.Correction>
   9.000000E+99

> <Gold.Chemscore.Hbonds>
donor molecule, donor type, donor heavy atom, donor atom, acceptor molecule, acceptor atom, score
      P1  H  6896  6909       L1     1  0.68
      P1  H  6934  6947       L1    23  0.02
      P1  H  7989  7998       L1     8  0.45

> <Gold.Chemscore.Hbond.Weighted>
-8.8917

> <Gold.Chemscore.Metal.Weighted>
-0.0000

> <Gold.Chemscore.Lipo.Weighted>
-9.2887

> <Gold.Chemscore.Internal_Hbond.Weighted>
0.0000

> <Gold.Chemscore.DEClash.Weighted>
0.0440

> <Gold.Chemscore.DEInternal.Weighted>
2.1442

> <Gold.Chemscore.Rot.Weighted>
3.1899

> <Gold.Chemscore.Internal.Correction.Weighted>
   9.000000E+99

> <Gold.Protein.RotatedTorsions>
[ 6907 6896 6895 6894 ] final   72.34 input  -60.11 | X-H torsion
[ 7974 7965 7964 7962 ] final  -74.77 input  175.53 | X-H torsion
[ 8008 7997 7996 7995 ] final  -27.72 input   59.86 | X-H torsion
[ 10167 10162 10161 10158 ] final  -56.38 input  -65.29 | X-H torsion
[ 10718 10713 10712 10709 ] final  -85.00 input   66.30 | X-H torsion
[ 10763 10752 10751 10750 ] final  141.52 input  -60.55 | X-H torsion
[ 11005 11000 10999 10996 ] final  -30.03 input  -57.11 | X-H torsion

> <Gold.Protein.ActiveResidues>
 VAL166  LYS551  ARG553  GLY616  TRP617  ASP618  TYR619  PRO620  LYS621  CYS622 
 ASP623  PHE694  ASN695  SER759  ASP760  ASP761  ALA762  ILE779  LEU786  VAL792 
 PHE793  MET794  SER795  GLU796  ALA797  LYS798  CYS799  TRP800  GLU811  SER814 

> <Gold.Protein.RotatedAtoms>
  152.4862  134.4585  159.9597 H   0  0  0  0  0  0  0  0  0  0  0  0  # atno 6907 bound_to 6896
  151.4581  133.3594  159.2813 H   0  0  0  0  0  0  0  0  0  0  0  0  # atno 6908 bound_to 6896
  150.8975  134.8409  159.7397 H   0  0  0  0  0  0  0  0  0  0  0  0  # atno 6909 bound_to 6896
  145.6348  140.9328  143.1067 H   0  0  0  0  0  0  0  0  0  0  0  0  # atno 7974 bound_to 7965
  154.4364  140.1864  156.0976 H   0  0  0  0  0  0  0  0  0  0  0  0  # atno 8008 bound_to 7997
  156.0317  140.3330  155.7121 H   0  0  0  0  0  0  0  0  0  0  0  0  # atno 8009 bound_to 7997
  155.5830  140.0623  157.2769 H   0  0  0  0  0  0  0  0  0  0  0  0  # atno 8010 bound_to 7997
  140.6320  143.2464  151.5216 H   0  0  0  0  0  0  0  0  0  0  0  0  # atno 10167 bound_to 10162
  156.0000  130.4716  150.4496 H   0  0  0  0  0  0  0  0  0  0  0  0  # atno 10718 bound_to 10713
  153.9406  135.2980  155.3443 H   0  0  0  0  0  0  0  0  0  0  0  0  # atno 10763 bound_to 10752
  154.7479  135.4994  153.9240 H   0  0  0  0  0  0  0  0  0  0  0  0  # atno 10764 bound_to 10752
  153.1044  135.6743  153.9719 H   0  0  0  0  0  0  0  0  0  0  0  0  # atno 10765 bound_to 10752
  140.9348  133.7315  156.0989 H   0  0  0  0  0  0  0  0  0  0  0  0  # atno 11005 bound_to 11000
  144.7180  139.8129  143.7392 LP  0  0  0  0  0  0  0  0  0  0  0  0  # atno 17320 bound_to 7965
  146.1328  139.4367  143.0158 LP  0  0  0  0  0  0  0  0  0  0  0  0  # atno 17321 bound_to 7965
  139.5533  144.2338  152.1569 LP  0  0  0  0  0  0  0  0  0  0  0  0  # atno 17342 bound_to 10162
  140.1585  144.5048  150.6646 LP  0  0  0  0  0  0  0  0  0  0  0  0  # atno 17343 bound_to 10162
  157.2530  131.0550  151.2367 LP  0  0  0  0  0  0  0  0  0  0  0  0  # atno 17370 bound_to 10713
  157.3509  130.7082  149.6440 LP  0  0  0  0  0  0  0  0  0  0  0  0  # atno 17371 bound_to 10713
  140.7814  134.3721  157.5486 LP  0  0  0  0  0  0  0  0  0  0  0  0  # atno 17394 bound_to 11000
  139.8805  134.9084  156.2967 LP  0  0  0  0  0  0  0  0  0  0  0  0  # atno 17395 bound_to 11000

$$$$
