#       Name:                AV-unprocessed.smi:1849
#       Creating user name   scv26
#       Creation time:       Fri Mar 27 09:22:54 2020


#       File generated by GOLD software.
#

@<TRIPOS>MOLECULE
AV-unprocessed.smi:1849
    43    44     1
SMALL
NO_CHARGES


@<TRIPOS>ATOM
      1 ****        -2.4227   3.6118  -1.2556 C.3            1 S1                 0.0000
      2 ****        -2.6071   4.0549   0.1282 N.pl3          1 S1                 0.0000
      3 ****        -3.2089   5.2159   0.5413 C.2            1 S1                 0.0000
      4 ****        -3.1579   5.2193   1.9110 C.2            1 S1                 0.0000
      5 ****        -2.5281   4.0608   2.2772 N.pl3          1 S1                 1.0000
      6 ****        -2.1956   3.3486   1.1942 C.2            1 S1                 0.0000
      7 ****        -1.4829   2.0330   1.2035 C.3            1 S1                 0.0000
      8 ****         0.0430   2.1831   1.0867 C.3            1 S1                 0.0000
      9 ****         0.7100   0.8870   1.0799 N.am           1 S1                 0.0000
     10 ****         0.7657   0.0633   0.0239 C.2            1 S1                 0.0000
     11 ****         0.2541   0.3105  -1.0685 O.2            1 S1                 0.0000
     12 ****         1.4373  -1.0621   0.3048 N.am           1 S1                 0.0000
     13 ****         1.6600  -2.1645  -0.6258 C.3            1 S1                 0.0000
     14 ****         0.4317  -3.0981  -0.6653 C.3            1 S1                 0.0000
     15 ****         0.6766  -4.3132  -1.5743 C.3            1 S1                 0.0000
     16 ****         1.9390  -5.0811  -1.1524 C.3            1 S1                 0.0000
     17 ****         3.1651  -4.1556  -1.1228 C.3            1 S1                 0.0000
     18 ****         2.9246  -2.9411  -0.2115 C.3            1 S1                 0.0000
     19 ****        -2.7700   4.3889  -1.9371 H              1 S1                 0.0000
     20 ****        -2.9991   2.7013  -1.4224 H              1 S1                 0.0000
     21 ****        -1.3654   3.4192  -1.4397 H              1 S1                 0.0000
     22 ****        -3.6177   5.9365  -0.1522 H              1 S1                 0.0000
     23 ****        -3.5124   5.9405   2.6331 H              1 S1                 0.0000
     24 ****        -1.7521   1.5306   2.1335 H              1 S1                 0.0000
     25 ****        -1.8912   1.4371   0.3868 H              1 S1                 0.0000
     26 ****         0.3092   2.7373   0.1853 H              1 S1                 0.0000
     27 ****         0.4260   2.7596   1.9292 H              1 S1                 0.0000
     28 ****         1.1615   0.5981   1.9357 H              1 S1                 0.0000
     29 ****         1.8196  -1.1693   1.2331 H              1 S1                 0.0000
     30 ****         1.8256  -1.7576  -1.6255 H              1 S1                 0.0000
     31 ****         0.1976  -3.4432   0.3429 H              1 S1                 0.0000
     32 ****        -0.4457  -2.5532  -1.0158 H              1 S1                 0.0000
     33 ****        -0.1882  -4.9768  -1.5486 H              1 S1                 0.0000
     34 ****         0.7802  -3.9802  -2.6078 H              1 S1                 0.0000
     35 ****         1.7878  -5.5200  -0.1653 H              1 S1                 0.0000
     36 ****         2.1154  -5.9113  -1.8368 H              1 S1                 0.0000
     37 ****         4.0402  -4.7090  -0.7807 H              1 S1                 0.0000
     38 ****         3.3903  -3.8153  -2.1343 H              1 S1                 0.0000
     39 ****         3.7943  -2.2836  -0.2414 H              1 S1                 0.0000
     40 ****         2.8292  -3.2805   0.8211 H              1 S1                 0.0000
     41 ****        -2.3403   3.7791   3.2312 H              1 S1                 0.0000
     42 ****        -0.2391   1.1693  -1.2067 LP             1 S1                 0.0000
     43 ****         0.3319  -0.3476  -1.8174 LP             1 S1                 0.0000
@<TRIPOS>BOND
    1    1    2 1     
    2    1   19 1     
    3    1   20 1     
    4    1   21 1     
    5    2    6 1     
    6    2    3 1     
    7    3    4 2     
    8    3   22 1     
    9    4    5 1     
   10    4   23 1     
   11    5    6 2     
   12    5   41 1     
   13    6    7 1     
   14    7    8 1     
   15    7   24 1     
   16    7   25 1     
   17    8    9 1     
   18    8   26 1     
   19    8   27 1     
   20    9   10 am    
   21    9   28 1     
   22   10   11 2     
   23   10   12 am    
   24   12   13 1     
   25   12   29 1     
   26   13   18 1     
   27   13   14 1     
   28   13   30 1     
   29   14   15 1     
   30   14   31 1     
   31   14   32 1     
   32   15   16 1     
   33   15   33 1     
   34   15   34 1     
   35   16   17 1     
   36   16   35 1     
   37   16   36 1     
   38   17   18 1     
   39   17   37 1     
   40   17   38 1     
   41   18   39 1     
   42   18   40 1     
   43   11   42 1     
   44   11   43 1     
@<TRIPOS>SUBSTRUCTURE
      1 S1             1
@<TRIPOS>SET
LONE_PAIRS      STATIC     ATOMS    <user>   **** ""
2 42 43
DONOR_HYDROGENS      STATIC     ATOMS    <user>   **** ""
3 41 28 29
ATOM$BLUE        STATIC     ATOMS    COLORGROUP SYSTEM
2 42 43
ATOM$RED        STATIC     ATOMS    COLORGROUP SYSTEM
3 41 28 29
