AV-unprocessed.smi:589|AV-procd|sdf|3006|dock4
  -GOLD-   2262023513D 1   1.00000     0.00000
 Structure written by MMmdl.
 40 41  0  0  0  0  0  0  0  0  1 V2000
  145.8367  131.8095  149.3564 C   0  0  0  0  0  0  0  0  0  0  0  0
  145.8852  132.7276  150.5594 C   0  0  0  0  0  0  0  0  0  0  0  0
  145.1161  133.9042  150.6060 C   0  0  0  0  0  0  0  0  0  0  0  0
  145.1967  134.7260  151.7485 C   0  0  0  0  0  0  0  0  0  0  0  0
  144.3921  136.0179  151.7655 C   0  0  0  0  0  0  0  0  0  0  0  0
  146.0418  134.3263  152.8229 C   0  0  0  0  0  0  0  0  0  0  0  0
  146.1757  135.1600  154.0734 C   0  0  0  0  0  0  0  0  0  0  0  0
  147.1139  136.1109  154.0454 N   0  0  0  0  0  0  0  0  0  0  0  0
  145.4370  134.9889  155.0413 O   0  0  0  0  0  0  0  0  0  0  0  0
  146.7902  133.1237  152.6645 C   0  0  0  0  0  0  0  0  0  0  0  0
  147.6455  132.6633  153.6803 N   0  0  0  0  0  0  0  0  0  0  0  0
  148.7235  133.5750  154.0342 C   0  0  0  0  0  0  0  0  0  0  0  0
  149.4262  133.0747  155.3085 C   0  0  2  0  0  0  0  0  0  0  0  0
  150.6381  133.9385  155.6717 C   0  0  0  0  0  0  0  0  0  0  0  0
  149.8780  131.7344  155.1059 O   0  0  0  0  0  0  0  0  0  0  0  0
  148.8546  130.8012  154.7449 C   0  0  1  0  0  0  0  0  0  0  0  0
  147.9234  130.4776  155.9268 C   0  0  0  0  0  0  0  0  0  0  0  0
  148.1037  131.2945  153.4920 C   0  0  0  0  0  0  0  0  0  0  0  0
  146.7034  132.3467  151.5588 N   0  0  0  0  0  0  0  0  0  0  0  0
  145.1976  132.2166  148.5725 H   0  0  0  0  0  0  0  0  0  0  0  0
  145.4453  130.8327  149.6418 H   0  0  0  0  0  0  0  0  0  0  0  0
  146.8362  131.6726  148.9429 H   0  0  0  0  0  0  0  0  0  0  0  0
  144.4818  134.1756  149.7746 H   0  0  0  0  0  0  0  0  0  0  0  0
  145.0045  136.8564  152.0985 H   0  0  0  0  0  0  0  0  0  0  0  0
  143.5325  135.9254  152.4294 H   0  0  0  0  0  0  0  0  0  0  0  0
  144.0198  136.2626  150.7702 H   0  0  0  0  0  0  0  0  0  0  0  0
  147.2572  136.7019  154.8512 H   0  0  0  0  0  0  0  0  0  0  0  0
  147.6786  136.2319  153.2171 H   0  0  0  0  0  0  0  0  0  0  0  0
  149.4375  133.6379  153.2116 H   0  0  0  0  0  0  0  0  0  0  0  0
  148.3210  134.5762  154.1932 H   0  0  0  0  0  0  0  0  0  0  0  0
  148.7282  133.1039  156.1456 H   0  0  0  0  0  0  0  0  0  0  0  0
  150.3426  134.9726  155.8502 H   0  0  0  0  0  0  0  0  0  0  0  0
  151.3799  133.9345  154.8726 H   0  0  0  0  0  0  0  0  0  0  0  0
  151.1212  133.5703  156.5771 H   0  0  0  0  0  0  0  0  0  0  0  0
  149.3657  129.8746  154.4828 H   0  0  0  0  0  0  0  0  0  0  0  0
  147.2327  129.6761  155.6645 H   0  0  0  0  0  0  0  0  0  0  0  0
  147.3215  131.3352  156.2267 H   0  0  0  0  0  0  0  0  0  0  0  0
  148.4960  130.1497  156.7946 H   0  0  0  0  0  0  0  0  0  0  0  0
  147.2587  130.6408  153.2716 H   0  0  0  0  0  0  0  0  0  0  0  0
  148.7692  131.2583  152.6283 H   0  0  0  0  0  0  0  0  0  0  0  0
  1  2  1  0  0  0  0
  1 20  1  0  0  0  0
  1 21  1  0  0  0  0
  1 22  1  0  0  0  0
  2 19  1  0  0  0  0
  2  3  2  0  0  0  0
  3  4  1  0  0  0  0
  3 23  1  0  0  0  0
  4  5  1  0  0  0  0
  4  6  2  0  0  0  0
  5 24  1  0  0  0  0
  5 25  1  0  0  0  0
  5 26  1  0  0  0  0
  6  7  1  0  0  0  0
  6 10  1  0  0  0  0
  7  8  1  0  0  0  0
  7  9  2  0  0  0  0
  8 27  1  0  0  0  0
  8 28  1  0  0  0  0
 10 11  1  0  0  0  0
 10 19  2  0  0  0  0
 11 18  1  0  0  0  0
 11 12  1  0  0  0  0
 12 13  1  0  0  0  0
 12 29  1  0  0  0  0
 12 30  1  0  0  0  0
 13 14  1  0  0  0  0
 13 15  1  0  0  0  0
 13 31  1  0  0  0  0
 14 32  1  0  0  0  0
 14 33  1  0  0  0  0
 14 34  1  0  0  0  0
 15 16  1  0  0  0  0
 16 17  1  0  0  0  0
 16 18  1  0  0  0  0
 16 35  1  0  0  0  0
 17 36  1  0  0  0  0
 17 37  1  0  0  0  0
 17 38  1  0  0  0  0
 18 39  1  0  0  0  0
 18 40  1  0  0  0  0
M  END
> <s_m_source_file>
AV-unprocessed.smi

> <i_m_source_file_index>
589

> <i_lp_mmshare_version>
43012

> <i_f3d_flags>
0

> <s_epik_input>
W0NIM11jMVtjSF1jKFtDSDNdKWMoQyg9TylbTkgyXSljKG4xKU4yW0NIMl1bQ0BASF0oW0NIM10pT1tDQEBIXShbQ0gzXSlbQ0gyXTI=

> <s_epik_cmdline>
J2VwaWtfcHl0aG9uJywgJy1waCcsICc3LjAnLCAnLXRuJywgJzgnLCAnLW1hJywgJzIwMCcsICctbWV0YWxfYmluZGluZycsICctaW1hZScsICc8aW5maWxlLm1hZT4nLCAnLW9tYWUnLCAnPG91dGZpbGUubWFlPic=

> <r_lp_tautomer_probability>
1

> <r_epik_Ionization_Penalty>
0.000626871

> <r_epik_Ionization_Penalty_Charging>
0

> <r_epik_Ionization_Penalty_Neutral>
0.000626871

> <r_epik_State_Penalty>
0.000395665

> <r_epik_Charging_Adjusted_Penalty>
0.000395665

> <i_epik_Tot_Q>
0

> <i_epik_Tot_abs_Q>
0

> <r_epik_Metal_State_Penalty>
-0

> <b_epik_Metal_Only>
0

> <s_lp_Force_Field>
OPLS_2005

> <r_lp_Energy>
27.5489

> <b_lp_Chiralities_Consistent>
1

> <s_lp_Variant>
AV-unprocessed.smi:589-2

> <Gold.Version>
5.8.1

> <Gold.Id.Protein>
6NUR|6NUR_protein|mol2

> <Gold.PLP.Fitness>
27.5254

> <Gold.PLP.PLP>
-27.4436

> <Gold.PLP.part.hbond>
-1.0000

> <Gold.PLP.part.metal>
0.0000

> <Gold.PLP.part.buried>
-4.7154

> <Gold.PLP.part.nonpolar>
-23.2516

> <Gold.PLP.part.repulsive>
1.2819

> <Gold.PLP.ligand.clash>
0.0000

> <Gold.PLP.ligand.torsion>
1.6306

> <Gold.PLP.Chemscore.Hbond>
1.0000

> <Gold.PLP.Chemscore.CHOScore>
0.0000

> <Gold.PLP.Chemscore.Metal>
0.0000

> <Gold.Chemscore.Hbonds>
donor molecule, donor type, donor heavy atom, donor atom, acceptor molecule, acceptor atom, score
      L1  H     8    28       P1  7948  1.00

> <Gold.PLP.Chemscore.Internal.Correction>
0.3429

> <Gold.Rescore>
     Score         DG    S(hbond)    S(metal)    S(lipo)     H(rot)  DE(clash)    DE(int)     intcor
     12.10     -13.85       1.00        0.00      65.01       1.00       0.00       1.75       ----

> <Gold.Chemscore.Fitness>
12.1028

> <Gold.Chemscore.DG>
-13.8548

> <Gold.Chemscore.ZeroCoef>
-5.4800

> <Gold.Chemscore.Hbond>
0.9967

> <Gold.Chemscore.Metal>
0.0000

> <Gold.Chemscore.Lipo>
65.0080

> <Gold.Chemscore.Internal_Hbond>
0.0000

> <Gold.Chemscore.DEClash>
0.0044

> <Gold.Chemscore.DEInternal>
1.7477

> <Gold.Chemscore.Rot>
1.0000

> <Gold.Chemscore.Internal.Correction>
   9.000000E+99

> <Gold.Chemscore.Hbonds>
donor molecule, donor type, donor heavy atom, donor atom, acceptor molecule, acceptor atom, score
      L1  H     8    28       P1  7948  1.00

> <Gold.Chemscore.Hbond.Weighted>
-3.3289

> <Gold.Chemscore.Metal.Weighted>
-0.0000

> <Gold.Chemscore.Lipo.Weighted>
-7.6059

> <Gold.Chemscore.Internal_Hbond.Weighted>
0.0000

> <Gold.Chemscore.DEClash.Weighted>
0.0044

> <Gold.Chemscore.DEInternal.Weighted>
1.7477

> <Gold.Chemscore.Rot.Weighted>
2.5600

> <Gold.Chemscore.Internal.Correction.Weighted>
   9.000000E+99

> <Gold.Protein.RotatedTorsions>
[ 6907 6896 6895 6894 ] final  -52.74 input  -60.11 | X-H torsion
[ 7974 7965 7964 7962 ] final  154.76 input  175.53 | X-H torsion
[ 8008 7997 7996 7995 ] final  164.00 input   59.86 | X-H torsion
[ 10167 10162 10161 10158 ] final   88.13 input  -65.29 | X-H torsion
[ 10718 10713 10712 10709 ] final  -86.61 input   66.30 | X-H torsion
[ 10763 10752 10751 10750 ] final   12.59 input  -60.55 | X-H torsion
[ 11005 11000 10999 10996 ] final  -82.47 input  -57.11 | X-H torsion

> <Gold.Protein.ActiveResidues>
 VAL166  LYS551  ARG553  GLY616  TRP617  ASP618  TYR619  PRO620  LYS621  CYS622 
 ASP623  PHE694  ASN695  SER759  ASP760  ASP761  ALA762  ILE779  LEU786  VAL792 
 PHE793  MET794  SER795  GLU796  ALA797  LYS798  CYS799  TRP800  GLU811  SER814 

> <Gold.Protein.RotatedAtoms>
  150.8490  134.7809  159.6993 H   0  0  0  0  0  0  0  0  0  0  0  0  # atno 6907 bound_to 6896
  152.4560  134.5288  159.9814 H   0  0  0  0  0  0  0  0  0  0  0  0  # atno 6908 bound_to 6896
  151.5412  133.3394  159.2971 H   0  0  0  0  0  0  0  0  0  0  0  0  # atno 6909 bound_to 6896
  144.8068  139.6977  143.6158 H   0  0  0  0  0  0  0  0  0  0  0  0  # atno 7974 bound_to 7965
  156.1914  140.1708  156.8085 H   0  0  0  0  0  0  0  0  0  0  0  0  # atno 8008 bound_to 7997
  154.5476  140.0724  156.8646 H   0  0  0  0  0  0  0  0  0  0  0  0  # atno 8009 bound_to 7997
  155.3092  140.3366  155.4247 H   0  0  0  0  0  0  0  0  0  0  0  0  # atno 8010 bound_to 7997
  139.8704  144.6496  150.8956 H   0  0  0  0  0  0  0  0  0  0  0  0  # atno 10167 bound_to 10162
  155.9989  130.4771  150.4741 H   0  0  0  0  0  0  0  0  0  0  0  0  # atno 10718 bound_to 10713
  153.1807  135.6827  153.8482 H   0  0  0  0  0  0  0  0  0  0  0  0  # atno 10763 bound_to 10752
  153.7815  135.3182  155.3367 H   0  0  0  0  0  0  0  0  0  0  0  0  # atno 10764 bound_to 10752
  154.8057  135.4750  154.0482 H   0  0  0  0  0  0  0  0  0  0  0  0  # atno 10765 bound_to 10752
  141.1663  133.7246  156.8576 H   0  0  0  0  0  0  0  0  0  0  0  0  # atno 11005 bound_to 11000
  146.2360  139.5907  142.9523 LP  0  0  0  0  0  0  0  0  0  0  0  0  # atno 17320 bound_to 7965
  145.5419  141.0420  143.2326 LP  0  0  0  0  0  0  0  0  0  0  0  0  # atno 17321 bound_to 7965
  140.7761  143.3669  151.1722 LP  0  0  0  0  0  0  0  0  0  0  0  0  # atno 17342 bound_to 10162
  139.7290  143.9103  152.3013 LP  0  0  0  0  0  0  0  0  0  0  0  0  # atno 17343 bound_to 10162
  157.2753  131.0595  151.2233 LP  0  0  0  0  0  0  0  0  0  0  0  0  # atno 17370 bound_to 10713
  157.3299  130.6980  149.6318 LP  0  0  0  0  0  0  0  0  0  0  0  0  # atno 17371 bound_to 10713
  140.1871  134.8992  157.3017 LP  0  0  0  0  0  0  0  0  0  0  0  0  # atno 17394 bound_to 11000
  140.2331  134.3885  155.7513 LP  0  0  0  0  0  0  0  0  0  0  0  0  # atno 17395 bound_to 11000

$$$$
