AV-unprocessed.smi:37|AV-procd|sdf|327|dock8
  -GOLD-   2262016153D 1   1.00000     0.00000
 Structure written by MMmdl.
 43 44  0  0  0  0  0  0  0  0  2 V2000
  149.8161  132.6998  154.2627 C   0  0  0  0  0  0  0  0  0  0  0  0
  150.3321  132.0223  155.5394 C   0  0  0  0  0  0  0  0  0  0  0  0
  150.0015  132.8260  156.7953 C   0  0  0  0  0  0  0  0  0  0  0  0
  150.8860  133.2183  157.5570 O   0  0  0  0  0  0  0  0  0  0  0  0
  148.6833  133.0257  156.9509 O   0  0  0  0  0  0  0  0  0  0  0  0
  148.2087  133.7167  158.0941 C   0  0  0  0  0  0  0  0  0  0  0  0
  148.4682  135.2189  157.9208 C   0  0  2  0  0  0  0  0  0  0  0  0
  149.8505  135.5257  158.0643 O   0  0  0  0  0  0  0  0  0  0  0  0
  150.0036  136.8430  158.5112 C   0  0  1  0  0  0  0  0  0  0  0  0
  150.7362  137.6577  157.4692 N   0  0  0  0  0  0  0  0  0  0  0  0
  150.4132  137.5672  156.1250 C   0  0  0  0  0  0  0  0  0  0  0  0
  151.0709  138.2948  155.1993 C   0  0  0  0  0  0  0  0  0  0  0  0
  150.7330  138.1898  153.9026 F   0  0  0  0  0  0  0  0  0  0  0  0
  152.1457  139.1944  155.6154 C   0  0  0  0  0  0  0  0  0  0  0  0
  152.7449  139.8521  154.7658 O   0  0  0  0  0  0  0  0  0  0  0  0
  152.4397  139.2647  156.9462 N   0  5  0  0  0  0  0  0  0  0  0  0
  151.7741  138.5336  157.8875 C   0  0  0  0  0  0  0  0  0  0  0  0
  152.0224  138.5971  159.0919 O   0  0  0  0  0  0  0  0  0  0  0  0
  148.5971  137.3932  158.8325 C   0  0  1  0  0  0  0  0  0  0  0  0
  147.8036  138.4771  157.3511 Br  0  0  0  0  0  0  0  0  0  0  0  0
  147.7903  136.1131  158.9620 C   0  0  2  0  0  0  0  0  0  0  0  0
  147.9426  135.5506  160.2616 O   0  0  0  0  0  0  0  0  0  0  0  0
  147.4452  136.1809  161.3409 C   0  0  0  0  0  0  0  0  0  0  0  0
  147.1026  137.3621  161.3936 O   0  0  0  0  0  0  0  0  0  0  0  0
  147.3530  135.2704  162.5634 C   0  0  0  0  0  0  0  0  0  0  0  0
  146.3946  134.0920  162.3414 C   0  0  0  0  0  0  0  0  0  0  0  0
  150.1107  132.1299  153.3815 H   0  0  0  0  0  0  0  0  0  0  0  0
  150.2216  133.7065  154.1559 H   0  0  0  0  0  0  0  0  0  0  0  0
  148.7278  132.7721  154.2592 H   0  0  0  0  0  0  0  0  0  0  0  0
  149.9013  131.0254  155.6344 H   0  0  0  0  0  0  0  0  0  0  0  0
  151.4132  131.8947  155.4785 H   0  0  0  0  0  0  0  0  0  0  0  0
  147.1377  133.5359  158.1942 H   0  0  0  0  0  0  0  0  0  0  0  0
  148.6922  133.3446  158.9987 H   0  0  0  0  0  0  0  0  0  0  0  0
  148.1453  135.5349  156.9273 H   0  0  0  0  0  0  0  0  0  0  0  0
  150.6604  136.8099  159.3822 H   0  0  0  0  0  0  0  0  0  0  0  0
  149.6187  136.9130  155.7989 H   0  0  0  0  0  0  0  0  0  0  0  0
  148.6108  138.0097  159.7320 H   0  0  0  0  0  0  0  0  0  0  0  0
  146.7340  136.2603  158.7316 H   0  0  0  0  0  0  0  0  0  0  0  0
  148.3505  134.9014  162.8034 H   0  0  0  0  0  0  0  0  0  0  0  0
  147.0202  135.8609  163.4174 H   0  0  0  0  0  0  0  0  0  0  0  0
  146.3169  133.4861  163.2443 H   0  0  0  0  0  0  0  0  0  0  0  0
  146.7396  133.4404  161.5375 H   0  0  0  0  0  0  0  0  0  0  0  0
  145.3918  134.4381  162.0884 H   0  0  0  0  0  0  0  0  0  0  0  0
  1  2  1  0  0  0  0
  1 27  1  0  0  0  0
  1 28  1  0  0  0  0
  1 29  1  0  0  0  0
  2  3  1  0  0  0  0
  2 30  1  0  0  0  0
  2 31  1  0  0  0  0
  3  4  2  0  0  0  0
  3  5  1  0  0  0  0
  5  6  1  0  0  0  0
  6  7  1  0  0  0  0
  6 32  1  0  0  0  0
  6 33  1  0  0  0  0
  7 21  1  0  0  0  0
  7  8  1  0  0  0  0
  7 34  1  0  0  0  0
  8  9  1  0  0  0  0
  9 10  1  0  0  0  0
  9 19  1  0  0  0  0
  9 35  1  0  0  0  0
 10 17  1  0  0  0  0
 10 11  1  0  0  0  0
 11 12  2  0  0  0  0
 11 36  1  0  0  0  0
 12 13  1  0  0  0  0
 12 14  1  0  0  0  0
 14 15  2  0  0  0  0
 14 16  1  0  0  0  0
 16 17  1  0  0  0  0
 17 18  2  0  0  0  0
 19 20  1  0  0  0  0
 19 21  1  0  0  0  0
 19 37  1  0  0  0  0
 21 22  1  0  0  0  0
 21 38  1  0  0  0  0
 22 23  1  0  0  0  0
 23 24  2  0  0  0  0
 23 25  1  0  0  0  0
 25 26  1  0  0  0  0
 25 39  1  0  0  0  0
 25 40  1  0  0  0  0
 26 41  1  0  0  0  0
 26 42  1  0  0  0  0
 26 43  1  0  0  0  0
M  CHG  1  16  -1
M  END
> <s_m_source_file>
AV-unprocessed.smi

> <i_m_source_file_index>
37

> <i_lp_mmshare_version>
43012

> <i_f3d_flags>
0

> <s_epik_input>
W0NIM11bQ0gyXUMoPU8pT1tDSDJdW0NAQEhdMU9bQ0BASF0objJbY0hdYyhGKWMoPU8pW25IXWMyPU8pW0NAQEhdKEJyKVtDQEhdMU9DKD1PKVtDSDJdW0NIM10=

> <s_epik_cmdline>
J2VwaWtfcHl0aG9uJywgJy1waCcsICc3LjAnLCAnLXRuJywgJzgnLCAnLW1hJywgJzIwMCcsICctbWV0YWxfYmluZGluZycsICctaW1hZScsICc8aW5maWxlLm1hZT4nLCAnLW9tYWUnLCAnPG91dGZpbGUubWFlPic=

> <r_epik_Ionization_Penalty>
1.08158

> <r_epik_Ionization_Penalty_Charging>
9.05154e-09

> <r_epik_Ionization_Penalty_Neutral>
1.08158

> <r_epik_State_Penalty>
1.13706

> <r_epik_Charging_Adjusted_Penalty>
1.13706

> <i_epik_Tot_Q>
-1

> <i_epik_Tot_abs_Q>
1

> <r_epik_Metal_State_Penalty>
0.00343535

> <b_epik_Metal_Only>
0

> <s_epik_Chemistry_Notes>
This compound has an ester and may undergo hydrolysis at high or low pH. This compound contains an acetal/aminal-like group ( X-CH(R)-Y where X, Y are N, S, or O) that may be acid/base labile, releasing an aldehyde.

> <s_lp_Force_Field>
OPLS_2005

> <r_lp_Energy>
34.9368

> <b_lp_Chiralities_Consistent>
1

> <s_lp_Variant>
AV-unprocessed.smi:37-25

> <Gold.Version>
5.8.1

> <Gold.Id.Protein>
6NUR|6NUR_protein|mol2

> <Gold.PLP.Fitness>
50.0672

> <Gold.PLP.PLP>
-39.1086

> <Gold.PLP.part.hbond>
-6.6888

> <Gold.PLP.part.metal>
0.0000

> <Gold.PLP.part.buried>
-5.3581

> <Gold.PLP.part.nonpolar>
-28.4690

> <Gold.PLP.part.repulsive>
0.0238

> <Gold.PLP.ligand.clash>
0.0000

> <Gold.PLP.ligand.torsion>
0.7842

> <Gold.PLP.Chemscore.Hbond>
4.0856

> <Gold.PLP.Chemscore.CHOScore>
0.0000

> <Gold.PLP.Chemscore.Metal>
0.0000

> <Gold.Chemscore.Hbonds>
donor molecule, donor type, donor heavy atom, donor atom, acceptor molecule, acceptor atom, score
      P1  H  6896  6907       L1     8  0.93
      P1  H  6896  6909       L1     4  0.09
      P1  H  6931  6943       L1    24  0.48
      P1  H  6934  6947       L1    24  1.00
      P1  H  7989  7998       L1    15  0.46
      P1  H  7997  8010       L1    15  0.60

> <Gold.PLP.Chemscore.Internal.Correction>
0.2702

> <Gold.Rescore>
     Score         DG    S(hbond)    S(metal)    S(lipo)     H(rot)  DE(clash)    DE(int)     intcor
      5.95     -11.66       2.61        0.00      49.95       3.27       0.00       5.71       ----

> <Gold.Chemscore.Fitness>
5.9480

> <Gold.Chemscore.DG>
-11.6639

> <Gold.Chemscore.ZeroCoef>
-5.4800

> <Gold.Chemscore.Hbond>
2.6059

> <Gold.Chemscore.Metal>
0.0000

> <Gold.Chemscore.Lipo>
49.9454

> <Gold.Chemscore.Internal_Hbond>
0.0000

> <Gold.Chemscore.DEClash>
0.0024

> <Gold.Chemscore.DEInternal>
5.7134

> <Gold.Chemscore.Rot>
3.2669

> <Gold.Chemscore.Internal.Correction>
   9.000000E+99

> <Gold.Chemscore.Hbonds>
donor molecule, donor type, donor heavy atom, donor atom, acceptor molecule, acceptor atom, score
      P1  H  6896  6907       L1     8  0.35
      P1  H  6896  6909       L1     4  0.10
      P1  H  6931  6943       L1    24  0.12
      P1  H  6934  6947       L1    24  0.96
      P1  H  7989  7998       L1    15  0.44
      P1  H  7997  8010       L1    15  0.06

> <Gold.Chemscore.Hbond.Weighted>
-8.7036

> <Gold.Chemscore.Metal.Weighted>
-0.0000

> <Gold.Chemscore.Lipo.Weighted>
-5.8436

> <Gold.Chemscore.Internal_Hbond.Weighted>
0.0000

> <Gold.Chemscore.DEClash.Weighted>
0.0024

> <Gold.Chemscore.DEInternal.Weighted>
5.7134

> <Gold.Chemscore.Rot.Weighted>
8.3634

> <Gold.Chemscore.Internal.Correction.Weighted>
   9.000000E+99

> <Gold.Protein.RotatedTorsions>
[ 6907 6896 6895 6894 ] final  -82.40 input  -60.11 | X-H torsion
[ 7974 7965 7964 7962 ] final  -24.81 input  175.53 | X-H torsion
[ 8008 7997 7996 7995 ] final   98.20 input   59.86 | X-H torsion
[ 10167 10162 10161 10158 ] final  -33.97 input  -65.29 | X-H torsion
[ 10718 10713 10712 10709 ] final  109.15 input   66.30 | X-H torsion
[ 10763 10752 10751 10750 ] final -117.04 input  -60.55 | X-H torsion
[ 11005 11000 10999 10996 ] final  107.54 input  -57.11 | X-H torsion

> <Gold.Protein.ActiveResidues>
 VAL166  LYS551  ARG553  GLY616  TRP617  ASP618  TYR619  PRO620  LYS621  CYS622 
 ASP623  PHE694  ASN695  SER759  ASP760  ASP761  ALA762  ILE779  LEU786  VAL792 
 PHE793  MET794  SER795  GLU796  ALA797  LYS798  CYS799  TRP800  GLU811  SER814 

> <Gold.Protein.RotatedAtoms>
  150.6898  134.3671  159.4975 H   0  0  0  0  0  0  0  0  0  0  0  0  # atno 6907 bound_to 6896
  152.1492  134.8999  160.0558 H   0  0  0  0  0  0  0  0  0  0  0  0  # atno 6908 bound_to 6896
  152.0103  133.3824  159.4254 H   0  0  0  0  0  0  0  0  0  0  0  0  # atno 6909 bound_to 6896
  146.1531  140.4802  142.8603 H   0  0  0  0  0  0  0  0  0  0  0  0  # atno 7974 bound_to 7965
  156.0980  140.3247  155.7904 H   0  0  0  0  0  0  0  0  0  0  0  0  # atno 8008 bound_to 7997
  155.4885  140.0559  157.2974 H   0  0  0  0  0  0  0  0  0  0  0  0  # atno 8009 bound_to 7997
  154.4679  140.1997  156.0086 H   0  0  0  0  0  0  0  0  0  0  0  0  # atno 8010 bound_to 7997
  140.7194  143.3582  151.2017 H   0  0  0  0  0  0  0  0  0  0  0  0  # atno 10167 bound_to 10162
  157.6554  131.0908  150.6411 H   0  0  0  0  0  0  0  0  0  0  0  0  # atno 10718 bound_to 10713
  154.8541  135.4324  154.1917 H   0  0  0  0  0  0  0  0  0  0  0  0  # atno 10763 bound_to 10752
  153.2984  135.6967  153.7232 H   0  0  0  0  0  0  0  0  0  0  0  0  # atno 10764 bound_to 10752
  153.6372  135.3474  155.3034 H   0  0  0  0  0  0  0  0  0  0  0  0  # atno 10765 bound_to 10752
  139.8830  134.9404  156.5835 H   0  0  0  0  0  0  0  0  0  0  0  0  # atno 11005 bound_to 11000
  144.7929  140.6066  143.6529 LP  0  0  0  0  0  0  0  0  0  0  0  0  # atno 17320 bound_to 7965
  145.4775  139.1498  143.3780 LP  0  0  0  0  0  0  0  0  0  0  0  0  # atno 17321 bound_to 7965
  139.7128  143.9349  152.2954 LP  0  0  0  0  0  0  0  0  0  0  0  0  # atno 17342 bound_to 10162
  139.9080  144.6873  150.8593 LP  0  0  0  0  0  0  0  0  0  0  0  0  # atno 17343 bound_to 10162
  156.6718  130.4542  149.5655 LP  0  0  0  0  0  0  0  0  0  0  0  0  # atno 17370 bound_to 10713
  156.1992  130.6609  151.1148 LP  0  0  0  0  0  0  0  0  0  0  0  0  # atno 17371 bound_to 10713
  140.8009  133.8506  155.8726 LP  0  0  0  0  0  0  0  0  0  0  0  0  # atno 17394 bound_to 11000
  140.9593  134.1676  157.4666 LP  0  0  0  0  0  0  0  0  0  0  0  0  # atno 17395 bound_to 11000

$$$$
