AV-unprocessed.smi:729|AV-procd|sdf|3520|dock1
  -GOLD-   22720 0513D 1   1.00000     0.00000
 Structure written by MMmdl.
 21 21  0  0  0  0  0  0  0  0  2 V2000
  152.9449  139.7287  158.9922 C   0  0  0  0  0  0  0  0  0  0  0  0
  152.1529  140.5834  158.0086 C   0  0  0  0  0  0  0  0  0  0  0  0
  151.9557  141.8934  158.2451 C   0  0  0  0  0  0  0  0  0  0  0  0
  151.2345  142.6951  157.2892 C   0  0  0  0  0  0  0  0  0  0  0  0
  151.0235  143.9957  157.5260 O   0  0  0  0  0  0  0  0  0  0  0  0
  150.7832  142.1299  156.1553 C   0  0  0  0  0  0  0  0  0  0  0  0
  150.9891  140.7102  155.8599 C   0  0  0  0  0  0  0  0  0  0  0  0
  150.5793  140.2207  154.8064 O   0  0  0  0  0  0  0  0  0  0  0  0
  151.6404  139.9757  156.8205 N   0  0  0  0  0  0  0  0  0  0  0  0
  151.8594  138.5295  156.5726 C   0  0  0  0  0  0  0  0  0  0  0  0
  152.5136  138.2441  155.2154 C   0  0  0  0  0  0  0  0  0  0  0  0
  153.5461  138.8905  154.9325 O   0  0  0  0  0  0  0  0  0  0  0  0
  151.9652  137.3935  154.4806 O   0  5  0  0  0  0  0  0  0  0  0  0
  153.4376  140.3582  159.7336 H   0  0  0  0  0  0  0  0  0  0  0  0
  153.7313  139.1539  158.5053 H   0  0  0  0  0  0  0  0  0  0  0  0
  152.2871  139.0512  159.5360 H   0  0  0  0  0  0  0  0  0  0  0  0
  152.3491  142.3513  159.1412 H   0  0  0  0  0  0  0  0  0  0  0  0
  150.2847  144.2631  157.0011 H   0  0  0  0  0  0  0  0  0  0  0  0
  150.2467  142.7347  155.4384 H   0  0  0  0  0  0  0  0  0  0  0  0
  152.4822  138.0492  157.3276 H   0  0  0  0  0  0  0  0  0  0  0  0
  150.9161  137.9905  156.6508 H   0  0  0  0  0  0  0  0  0  0  0  0
  1  2  1  0  0  0  0
  1 14  1  0  0  0  0
  1 15  1  0  0  0  0
  1 16  1  0  0  0  0
  2  9  1  0  0  0  0
  2  3  2  0  0  0  0
  3  4  1  0  0  0  0
  3 17  1  0  0  0  0
  4  5  1  0  0  0  0
  4  6  2  0  0  0  0
  5 18  1  0  0  0  0
  6  7  1  0  0  0  0
  6 19  1  0  0  0  0
  7  8  2  0  0  0  0
  7  9  1  0  0  0  0
  9 10  1  0  0  0  0
 10 11  1  0  0  0  0
 10 20  1  0  0  0  0
 10 21  1  0  0  0  0
 11 12  2  0  0  0  0
 11 13  1  0  0  0  0
M  CHG  1  13  -1
M  END
> <s_m_source_file>
AV-unprocessed.smi

> <i_m_source_file_index>
729

> <i_lp_mmshare_version>
43012

> <i_f3d_flags>
0

> <s_epik_input>
W0NIM11jMVtjSF1jKFtPSF0pW2NIXWMoPU8pbjFbQ0gyXUMoPU8pW09IXQ==

> <s_epik_cmdline>
J2VwaWtfcHl0aG9uJywgJy1waCcsICc3LjAnLCAnLXRuJywgJzgnLCAnLW1hJywgJzIwMCcsICctbWV0YWxfYmluZGluZycsICctaW1hZScsICc8aW5maWxlLm1hZT4nLCAnLW9tYWUnLCAnPG91dGZpbGUubWFlPic=

> <r_lp_tautomer_probability>
0.999984

> <r_epik_Ionization_Penalty>
0.418052

> <r_epik_Ionization_Penalty_Charging>
0.00125892

> <r_epik_Ionization_Penalty_Neutral>
0.416793

> <r_epik_State_Penalty>
0.458518

> <r_epik_Charging_Adjusted_Penalty>
0.459777

> <i_epik_Tot_Q>
-1

> <i_epik_Tot_abs_Q>
1

> <r_epik_Metal_State_Penalty>
0.458518

> <b_epik_Metal_Only>
0

> <s_lp_Force_Field>
OPLS_2005

> <r_lp_Energy>
10.5639

> <b_lp_Chiralities_Consistent>
1

> <s_lp_Variant>
AV-unprocessed.smi:729-2

> <Gold.Version>
5.8.1

> <Gold.Id.Protein>
6NUR|6NUR_protein|mol2

> <Gold.PLP.Fitness>
42.3539

> <Gold.PLP.PLP>
-24.8633

> <Gold.PLP.part.hbond>
-4.0000

> <Gold.PLP.part.metal>
0.0000

> <Gold.PLP.part.buried>
-5.4440

> <Gold.PLP.part.nonpolar>
-16.7414

> <Gold.PLP.part.repulsive>
0.2218

> <Gold.PLP.ligand.clash>
0.0000

> <Gold.PLP.ligand.torsion>
0.1368

> <Gold.PLP.Chemscore.Hbond>
5.9200

> <Gold.PLP.Chemscore.CHOScore>
0.0000

> <Gold.PLP.Chemscore.Metal>
0.0000

> <Gold.Chemscore.Hbonds>
donor molecule, donor type, donor heavy atom, donor atom, acceptor molecule, acceptor atom, score
      L1  H     5    18       P1  8028  1.00
      P1  H  7989  7998       L1     8  1.00
      P1  H  7997  8008       L1    12  2.00
      P1  H 10752 10764       L1    13  1.82

> <Gold.PLP.Chemscore.Internal.Correction>
0.0041

> <Gold.Rescore>
     Score         DG    S(hbond)    S(metal)    S(lipo)     H(rot)  DE(clash)    DE(int)     intcor
     15.42     -16.94       3.56        0.00      43.30       2.14       0.01       1.51       ----

> <Gold.Chemscore.Fitness>
15.4201

> <Gold.Chemscore.DG>
-16.9376

> <Gold.Chemscore.ZeroCoef>
-5.4800

> <Gold.Chemscore.Hbond>
3.5556

> <Gold.Chemscore.Metal>
0.0000

> <Gold.Chemscore.Lipo>
43.3010

> <Gold.Chemscore.Internal_Hbond>
0.0000

> <Gold.Chemscore.DEClash>
0.0086

> <Gold.Chemscore.DEInternal>
1.5089

> <Gold.Chemscore.Rot>
2.1423

> <Gold.Chemscore.Internal.Correction>
   9.000000E+99

> <Gold.Chemscore.Hbonds>
donor molecule, donor type, donor heavy atom, donor atom, acceptor molecule, acceptor atom, score
      L1  H     5    18       P1  8028  0.89
      P1  H  7989  7998       L1     8  0.55
      P1  H  7997  8008       L1    12  0.94
      P1  H 10752 10764       L1    13  0.79

> <Gold.Chemscore.Hbond.Weighted>
-11.8757

> <Gold.Chemscore.Metal.Weighted>
-0.0000

> <Gold.Chemscore.Lipo.Weighted>
-5.0662

> <Gold.Chemscore.Internal_Hbond.Weighted>
0.0000

> <Gold.Chemscore.DEClash.Weighted>
0.0086

> <Gold.Chemscore.DEInternal.Weighted>
1.5089

> <Gold.Chemscore.Rot.Weighted>
5.4843

> <Gold.Chemscore.Internal.Correction.Weighted>
   9.000000E+99

> <Gold.Protein.RotatedTorsions>
[ 6907 6896 6895 6894 ] final  124.21 input  -60.11 | X-H torsion
[ 7974 7965 7964 7962 ] final -102.01 input  175.53 | X-H torsion
[ 8008 7997 7996 7995 ] final  -18.27 input   59.86 | X-H torsion
[ 10167 10162 10161 10158 ] final  -43.26 input  -65.29 | X-H torsion
[ 10718 10713 10712 10709 ] final  127.40 input   66.30 | X-H torsion
[ 10763 10752 10751 10750 ] final  -77.21 input  -60.55 | X-H torsion
[ 11005 11000 10999 10996 ] final  134.28 input  -57.11 | X-H torsion

> <Gold.Protein.ActiveResidues>
 VAL166  LYS551  ARG553  GLY616  TRP617  ASP618  TYR619  PRO620  LYS621  CYS622 
 ASP623  PHE694  ASN695  SER759  ASP760  ASP761  ALA762  ILE779  LEU786  VAL792 
 PHE793  MET794  SER795  GLU796  ALA797  LYS798  CYS799  TRP800  GLU811  SER814 

> <Gold.Protein.RotatedAtoms>
  152.4097  133.6944  159.6386 H   0  0  0  0  0  0  0  0  0  0  0  0  # atno 6907 bound_to 6896
  150.7978  133.8646  159.3250 H   0  0  0  0  0  0  0  0  0  0  0  0  # atno 6908 bound_to 6896
  151.6391  135.1016  160.0189 H   0  0  0  0  0  0  0  0  0  0  0  0  # atno 6909 bound_to 6896
  145.2743  140.9308  143.2968 H   0  0  0  0  0  0  0  0  0  0  0  0  # atno 7974 bound_to 7965
  154.4918  140.2120  155.9531 H   0  0  0  0  0  0  0  0  0  0  0  0  # atno 8008 bound_to 7997
  156.1316  140.3196  155.8326 H   0  0  0  0  0  0  0  0  0  0  0  0  # atno 8009 bound_to 7997
  155.4285  140.0502  157.3011 H   0  0  0  0  0  0  0  0  0  0  0  0  # atno 8010 bound_to 7997
  140.6940  143.2992  151.3327 H   0  0  0  0  0  0  0  0  0  0  0  0  # atno 10167 bound_to 10162
  157.5336  131.1098  150.8971 H   0  0  0  0  0  0  0  0  0  0  0  0  # atno 10718 bound_to 10713
  154.5100  135.5771  153.6597 H   0  0  0  0  0  0  0  0  0  0  0  0  # atno 10763 bound_to 10752
  152.9895  135.6156  154.2891 H   0  0  0  0  0  0  0  0  0  0  0  0  # atno 10764 bound_to 10752
  154.2805  135.2851  155.2679 H   0  0  0  0  0  0  0  0  0  0  0  0  # atno 10765 bound_to 10752
  139.9905  134.9516  156.9845 H   0  0  0  0  0  0  0  0  0  0  0  0  # atno 11005 bound_to 11000
  144.9308  139.4301  143.6496 LP  0  0  0  0  0  0  0  0  0  0  0  0  # atno 17320 bound_to 7965
  146.3237  139.8218  142.8925 LP  0  0  0  0  0  0  0  0  0  0  0  0  # atno 17321 bound_to 7965
  139.6374  144.0605  152.2526 LP  0  0  0  0  0  0  0  0  0  0  0  0  # atno 17342 bound_to 10162
  140.0099  144.6231  150.7656 LP  0  0  0  0  0  0  0  0  0  0  0  0  # atno 17343 bound_to 10162
  156.9544  130.5432  149.5283 LP  0  0  0  0  0  0  0  0  0  0  0  0  # atno 17370 bound_to 10713
  156.0441  130.5520  150.8840 LP  0  0  0  0  0  0  0  0  0  0  0  0  # atno 17371 bound_to 10713
  140.4918  134.1186  155.7234 LP  0  0  0  0  0  0  0  0  0  0  0  0  # atno 17394 bound_to 11000
  141.1562  133.8879  157.1971 LP  0  0  0  0  0  0  0  0  0  0  0  0  # atno 17395 bound_to 11000

$$$$
