AV-unprocessed.smi:1815|AV-procd|sdf|7351|dock5
  -GOLD-   22720 9 13D 1   1.00000     0.00000
 Structure written by MMmdl.
 39 40  0  0  0  0  0  0  0  0  1 V2000
  153.8774  141.6733  161.7482 C   0  0  0  0  0  0  0  0  0  0  0  0
  153.4297  142.2663  160.4084 C   0  0  1  0  0  0  0  0  0  0  0  0
  152.4409  141.3477  159.6656 C   0  0  0  0  0  0  0  0  0  0  0  0
  151.9595  141.9498  158.4278 N   0  0  0  0  0  0  0  0  0  0  0  0
  151.0312  141.0547  157.7357 C   0  0  0  0  0  0  0  0  0  0  0  0
  150.1770  141.7110  156.6327 C   0  0  0  0  0  0  0  0  0  0  0  0
  149.1676  140.7976  156.1074 N   0  0  0  0  0  0  0  0  0  0  0  0
  148.9165  140.5934  154.8067 C   0  0  0  0  0  0  0  0  0  0  0  0
  149.5351  141.1521  153.9001 O   0  0  0  0  0  0  0  0  0  0  0  0
  147.9136  139.7140  154.6372 N   0  0  0  0  0  0  0  0  0  0  0  0
  147.3599  139.2375  153.4201 C   0  0  0  0  0  0  0  0  0  0  0  0
  146.7400  138.0594  153.2828 N   0  0  0  0  0  0  0  0  0  0  0  0
  146.2933  137.8510  151.9755 C   0  0  0  0  0  0  0  0  0  0  0  0
  146.5839  138.8878  151.1240 C   0  0  0  0  0  0  0  0  0  0  0  0
  147.4347  140.1753  151.9355 S   0  0  0  0  0  0  0  0  0  0  0  0
  151.3656  143.2486  158.7320 C   0  0  0  0  0  0  0  0  0  0  0  0
  152.3492  144.1717  159.4766 C   0  0  1  0  0  0  0  0  0  0  0  0
  151.7035  145.5026  159.8752 C   0  0  0  0  0  0  0  0  0  0  0  0
  152.7991  143.5190  160.6607 O   0  0  0  0  0  0  0  0  0  0  0  0
  154.3758  140.7142  161.6053 H   0  0  0  0  0  0  0  0  0  0  0  0
  153.0281  141.5142  162.4132 H   0  0  0  0  0  0  0  0  0  0  0  0
  154.5769  142.3390  162.2545 H   0  0  0  0  0  0  0  0  0  0  0  0
  154.3113  142.4325  159.7868 H   0  0  0  0  0  0  0  0  0  0  0  0
  152.9286  140.3970  159.4464 H   0  0  0  0  0  0  0  0  0  0  0  0
  151.5957  141.1210  160.3177 H   0  0  0  0  0  0  0  0  0  0  0  0
  151.5981  140.2425  157.2786 H   0  0  0  0  0  0  0  0  0  0  0  0
  150.3717  140.5790  158.4629 H   0  0  0  0  0  0  0  0  0  0  0  0
  149.6928  142.6064  157.0261 H   0  0  0  0  0  0  0  0  0  0  0  0
  150.8012  142.0513  155.8072 H   0  0  0  0  0  0  0  0  0  0  0  0
  148.6086  140.3004  156.7851 H   0  0  0  0  0  0  0  0  0  0  0  0
  147.4972  139.3413  155.4777 H   0  0  0  0  0  0  0  0  0  0  0  0
  145.7764  136.9330  151.7379 H   0  0  0  0  0  0  0  0  0  0  0  0
  146.3499  138.9716  150.0730 H   0  0  0  0  0  0  0  0  0  0  0  0
  151.0523  143.7436  157.8132 H   0  0  0  0  0  0  0  0  0  0  0  0
  150.4671  143.1107  159.3356 H   0  0  0  0  0  0  0  0  0  0  0  0
  153.2106  144.3770  158.8383 H   0  0  0  0  0  0  0  0  0  0  0  0
  151.3498  146.0452  158.9983 H   0  0  0  0  0  0  0  0  0  0  0  0
  152.4174  146.1413  160.3958 H   0  0  0  0  0  0  0  0  0  0  0  0
  150.8519  145.3453  160.5376 H   0  0  0  0  0  0  0  0  0  0  0  0
  1  2  1  0  0  0  0
  1 20  1  0  0  0  0
  1 21  1  0  0  0  0
  1 22  1  0  0  0  0
  2 19  1  0  0  0  0
  2  3  1  0  0  0  0
  2 23  1  0  0  0  0
  3  4  1  0  0  0  0
  3 24  1  0  0  0  0
  3 25  1  0  0  0  0
  4  5  1  0  0  0  0
  4 16  1  0  0  0  0
  5  6  1  0  0  0  0
  5 26  1  0  0  0  0
  5 27  1  0  0  0  0
  6  7  1  0  0  0  0
  6 28  1  0  0  0  0
  6 29  1  0  0  0  0
  7  8  1  0  0  0  0
  7 30  1  0  0  0  0
  8  9  2  0  0  0  0
  8 10  1  0  0  0  0
 10 11  1  0  0  0  0
 10 31  1  0  0  0  0
 11 15  1  0  0  0  0
 11 12  2  0  0  0  0
 12 13  1  0  0  0  0
 13 14  2  0  0  0  0
 13 32  1  0  0  0  0
 14 15  1  0  0  0  0
 14 33  1  0  0  0  0
 16 17  1  0  0  0  0
 16 34  1  0  0  0  0
 16 35  1  0  0  0  0
 17 18  1  0  0  0  0
 17 19  1  0  0  0  0
 17 36  1  0  0  0  0
 18 37  1  0  0  0  0
 18 38  1  0  0  0  0
 18 39  1  0  0  0  0
M  END
> <s_m_source_file>
AV-unprocessed.smi

> <i_m_source_file_index>
1815

> <i_lp_mmshare_version>
43012

> <i_f3d_flags>
0

> <s_epik_input>
W0NIM11bQ0BASF0xW0NIMl1OKFtDSDJdW0NASF0oTzEpW0NIM10pW0NIMl1bQ0gyXVtOSF1DKD1PKVtOSF1jMm5bY0hdW2NIXXMy

> <s_epik_cmdline>
J2VwaWtfcHl0aG9uJywgJy1waCcsICc3LjAnLCAnLXRuJywgJzgnLCAnLW1hJywgJzIwMCcsICctbWV0YWxfYmluZGluZycsICctaW1hZScsICc8aW5maWxlLm1hZT4nLCAnLW9tYWUnLCAnPG91dGZpbGUubWFlPic=

> <r_lp_tautomer_probability>
0.999

> <r_epik_Ionization_Penalty>
0.219201

> <r_epik_Ionization_Penalty_Charging>
0

> <r_epik_Ionization_Penalty_Neutral>
0.219201

> <r_epik_State_Penalty>
0.209349

> <r_epik_Charging_Adjusted_Penalty>
0.209349

> <i_epik_Tot_Q>
0

> <i_epik_Tot_abs_Q>
0

> <r_epik_Metal_State_Penalty>
0.247737

> <b_epik_Metal_Only>
0

> <s_lp_Force_Field>
OPLS_2005

> <r_lp_Energy>
22.4698

> <b_lp_Chiralities_Consistent>
1

> <s_lp_Variant>
AV-unprocessed.smi:1815-2

> <Gold.Version>
5.8.1

> <Gold.Id.Protein>
6NUR|6NUR_protein|mol2

> <Gold.PLP.Fitness>
40.2949

> <Gold.PLP.PLP>
-36.0388

> <Gold.PLP.part.hbond>
-2.0000

> <Gold.PLP.part.metal>
0.0000

> <Gold.PLP.part.buried>
4.7396

> <Gold.PLP.part.nonpolar>
-38.4062

> <Gold.PLP.part.repulsive>
1.4094

> <Gold.PLP.ligand.clash>
0.0000

> <Gold.PLP.ligand.torsion>
0.3657

> <Gold.PLP.Chemscore.Hbond>
1.0535

> <Gold.PLP.Chemscore.CHOScore>
0.6014

> <Gold.PLP.Chemscore.Metal>
0.0000

> <Gold.Chemscore.Hbonds>
donor molecule, donor type, donor heavy atom, donor atom, acceptor molecule, acceptor atom, score
      P1  H  7989  7998       L1     9  0.26
      P1  H  8011  8017       L1     9  0.86
      L1  C    14    33       P1 10171  0.57

> <Gold.PLP.Chemscore.Internal.Correction>
0.0226

> <Gold.Rescore>
     Score         DG    S(hbond)    S(metal)    S(lipo)     H(rot)  DE(clash)    DE(int)     intcor
     13.56     -17.42       1.03        0.00     107.74       1.60       2.66       1.20       ----

> <Gold.Chemscore.Fitness>
13.5638

> <Gold.Chemscore.DG>
-17.4191

> <Gold.Chemscore.ZeroCoef>
-5.4800

> <Gold.Chemscore.Hbond>
1.0269

> <Gold.Chemscore.Metal>
0.0000

> <Gold.Chemscore.Lipo>
107.7403

> <Gold.Chemscore.Internal_Hbond>
0.0000

> <Gold.Chemscore.DEClash>
2.6577

> <Gold.Chemscore.DEInternal>
1.1976

> <Gold.Chemscore.Rot>
1.6001

> <Gold.Chemscore.Internal.Correction>
   9.000000E+99

> <Gold.Chemscore.Hbonds>
donor molecule, donor type, donor heavy atom, donor atom, acceptor molecule, acceptor atom, score
      P1  H  7989  7998       L1     9  0.26
      P1  H  8011  8017       L1     9  0.79

> <Gold.Chemscore.Hbond.Weighted>
-3.4298

> <Gold.Chemscore.Metal.Weighted>
-0.0000

> <Gold.Chemscore.Lipo.Weighted>
-12.6056

> <Gold.Chemscore.Internal_Hbond.Weighted>
0.0000

> <Gold.Chemscore.DEClash.Weighted>
2.6577

> <Gold.Chemscore.DEInternal.Weighted>
1.1976

> <Gold.Chemscore.Rot.Weighted>
4.0963

> <Gold.Chemscore.Internal.Correction.Weighted>
   9.000000E+99

> <Gold.Protein.RotatedTorsions>
[ 6907 6896 6895 6894 ] final   86.94 input  -60.11 | X-H torsion
[ 7974 7965 7964 7962 ] final  144.97 input  175.53 | X-H torsion
[ 8008 7997 7996 7995 ] final  144.91 input   59.86 | X-H torsion
[ 10167 10162 10161 10158 ] final  179.92 input  -65.29 | X-H torsion
[ 10718 10713 10712 10709 ] final   32.10 input   66.30 | X-H torsion
[ 10763 10752 10751 10750 ] final  116.03 input  -60.55 | X-H torsion
[ 11005 11000 10999 10996 ] final   29.37 input  -57.11 | X-H torsion

> <Gold.Protein.ActiveResidues>
 VAL166  LYS551  ARG553  GLY616  TRP617  ASP618  TYR619  PRO620  LYS621  CYS622 
 ASP623  PHE694  ASN695  SER759  ASP760  ASP761  ALA762  ILE779  LEU786  VAL792 
 PHE793  MET794  SER795  GLU796  ALA797  LYS798  CYS799  TRP800  GLU811  SER814 

> <Gold.Protein.RotatedAtoms>
  152.5403  134.2354  159.8840 H   0  0  0  0  0  0  0  0  0  0  0  0  # atno 6907 bound_to 6896
  151.2324  133.4436  159.2612 H   0  0  0  0  0  0  0  0  0  0  0  0  # atno 6908 bound_to 6896
  151.0703  134.9807  159.8361 H   0  0  0  0  0  0  0  0  0  0  0  0  # atno 6909 bound_to 6896
  144.8791  139.5727  143.5851 H   0  0  0  0  0  0  0  0  0  0  0  0  # atno 7974 bound_to 7965
  156.2896  140.2223  156.5129 H   0  0  0  0  0  0  0  0  0  0  0  0  # atno 8008 bound_to 7997
  154.7593  140.0474  157.0982 H   0  0  0  0  0  0  0  0  0  0  0  0  # atno 8009 bound_to 7997
  155.0011  140.3101  155.4870 H   0  0  0  0  0  0  0  0  0  0  0  0  # atno 8010 bound_to 7997
  139.5357  144.2503  152.0789 H   0  0  0  0  0  0  0  0  0  0  0  0  # atno 10167 bound_to 10162
  157.2809  130.7254  149.6556 H   0  0  0  0  0  0  0  0  0  0  0  0  # atno 10718 bound_to 10713
  153.5311  135.3578  155.2676 H   0  0  0  0  0  0  0  0  0  0  0  0  # atno 10763 bound_to 10752
  154.8726  135.4068  154.3150 H   0  0  0  0  0  0  0  0  0  0  0  0  # atno 10764 bound_to 10752
  153.3839  135.7069  153.6612 H   0  0  0  0  0  0  0  0  0  0  0  0  # atno 10765 bound_to 10752
  140.3057  134.2707  155.7744 H   0  0  0  0  0  0  0  0  0  0  0  0  # atno 11005 bound_to 11000
  146.2982  139.7344  142.9111 LP  0  0  0  0  0  0  0  0  0  0  0  0  # atno 17320 bound_to 7965
  145.3988  141.0382  143.3082 LP  0  0  0  0  0  0  0  0  0  0  0  0  # atno 17321 bound_to 7965
  140.1974  144.4692  150.6448 LP  0  0  0  0  0  0  0  0  0  0  0  0  # atno 17342 bound_to 10162
  140.6562  143.2238  151.5962 LP  0  0  0  0  0  0  0  0  0  0  0  0  # atno 17343 bound_to 10162
  155.9664  130.4338  150.5023 LP  0  0  0  0  0  0  0  0  0  0  0  0  # atno 17370 bound_to 10713
  157.2967  131.0637  151.2097 LP  0  0  0  0  0  0  0  0  0  0  0  0  # atno 17371 bound_to 10713
  141.2119  133.7675  156.9833 LP  0  0  0  0  0  0  0  0  0  0  0  0  # atno 17394 bound_to 11000
  140.1070  134.9500  157.2008 LP  0  0  0  0  0  0  0  0  0  0  0  0  # atno 17395 bound_to 11000

$$$$
