AV-unprocessed.smi:1029|AV-procd|sdf|4475|dock4
  -GOLD-   22720 2453D 1   1.00000     0.00000
 Structure written by MMmdl.
 46 47  0  0  0  0  0  0  0  0  2 V2000
  152.6612  141.2016  159.2695 C   0  0  0  0  0  0  0  0  0  0  0  0
  151.8798  140.6329  158.1221 C   0  0  0  0  0  0  0  0  0  0  0  0
  150.4863  140.7482  157.8583 C   0  0  0  0  0  0  0  0  0  0  0  0
  150.3390  140.0430  156.6936 C   0  0  0  0  0  0  0  0  0  0  0  0
  149.2050  139.8151  155.9811 N   0  0  0  0  0  0  0  0  0  0  0  0
  148.8750  140.2573  154.7549 C   0  0  0  0  0  0  0  0  0  0  0  0
  149.5861  140.9534  154.0297 O   0  0  0  0  0  0  0  0  0  0  0  0
  147.6510  139.8380  154.4025 N   0  0  0  0  0  0  0  0  0  0  0  0
  146.9917  140.1488  153.1384 C   0  0  0  0  0  0  0  0  0  0  0  0
  146.5941  138.8739  152.3666 C   0  0  1  0  0  0  0  0  0  0  0  0
  147.6733  138.4925  151.5353 O   0  0  0  0  0  0  0  0  0  0  0  0
  146.3153  137.6963  153.3237 C   0  0  0  0  0  0  0  0  0  0  0  0
  146.2803  136.3864  152.6228 N   0  3  2  0  0  0  0  0  0  0  0  0
  145.2344  136.3076  151.5684 C   0  0  0  0  0  0  0  0  0  0  0  0
  145.3336  134.9866  150.7870 C   0  0  0  0  0  0  0  0  0  0  0  0
  145.2402  133.7722  151.7260 C   0  0  1  0  0  0  0  0  0  0  0  0
  145.3710  132.4488  150.9590 C   0  0  0  0  0  0  0  0  0  0  0  0
  146.3071  133.9005  152.8259 C   0  0  0  0  0  0  0  0  0  0  0  0
  146.1882  135.2431  153.5666 C   0  0  0  0  0  0  0  0  0  0  0  0
  151.5224  139.5315  156.2762 O   0  0  0  0  0  0  0  0  0  0  0  0
  152.5033  139.9181  157.1969 N   0  0  0  0  0  0  0  0  0  0  0  0
  152.0264  141.8075  159.9162 H   0  0  0  0  0  0  0  0  0  0  0  0
  153.4745  141.8356  158.9155 H   0  0  0  0  0  0  0  0  0  0  0  0
  153.0962  140.4094  159.8793 H   0  0  0  0  0  0  0  0  0  0  0  0
  149.7381  141.2651  158.4398 H   0  0  0  0  0  0  0  0  0  0  0  0
  148.5226  139.2306  156.4409 H   0  0  0  0  0  0  0  0  0  0  0  0
  147.1379  139.2644  155.0560 H   0  0  0  0  0  0  0  0  0  0  0  0
  146.1385  140.8149  153.2816 H   0  0  0  0  0  0  0  0  0  0  0  0
  147.7176  140.7143  152.5533 H   0  0  0  0  0  0  0  0  0  0  0  0
  145.7194  139.0785  151.7497 H   0  0  0  0  0  0  0  0  0  0  0  0
  148.4060  139.0650  151.7062 H   0  0  0  0  0  0  0  0  0  0  0  0
  147.0916  137.6852  154.0908 H   0  0  0  0  0  0  0  0  0  0  0  0
  145.3719  137.8435  153.8516 H   0  0  0  0  0  0  0  0  0  0  0  0
  144.2474  136.3989  152.0246 H   0  0  0  0  0  0  0  0  0  0  0  0
  145.3349  137.1368  150.8691 H   0  0  0  0  0  0  0  0  0  0  0  0
  144.5408  134.9426  150.0394 H   0  0  0  0  0  0  0  0  0  0  0  0
  146.2762  134.9591  150.2379 H   0  0  0  0  0  0  0  0  0  0  0  0
  144.2581  133.7841  152.2012 H   0  0  0  0  0  0  0  0  0  0  0  0
  146.3375  132.3717  150.4599 H   0  0  0  0  0  0  0  0  0  0  0  0
  144.5954  132.3580  150.1981 H   0  0  0  0  0  0  0  0  0  0  0  0
  145.2742  131.5951  151.6303 H   0  0  0  0  0  0  0  0  0  0  0  0
  146.2113  133.0796  153.5376 H   0  0  0  0  0  0  0  0  0  0  0  0
  147.3025  133.8146  152.3879 H   0  0  0  0  0  0  0  0  0  0  0  0
  146.9860  135.3109  154.3074 H   0  0  0  0  0  0  0  0  0  0  0  0
  145.2439  135.2928  154.1112 H   0  0  0  0  0  0  0  0  0  0  0  0
  147.1734  136.2945  152.1591 H   0  0  0  0  0  0  0  0  0  0  0  0
  1  2  1  0  0  0  0
  1 22  1  0  0  0  0
  1 23  1  0  0  0  0
  1 24  1  0  0  0  0
  2 21  2  0  0  0  0
  2  3  1  0  0  0  0
  3  4  2  0  0  0  0
  3 25  1  0  0  0  0
  4  5  1  0  0  0  0
  4 20  1  0  0  0  0
  5  6  1  0  0  0  0
  5 26  1  0  0  0  0
  6  7  2  0  0  0  0
  6  8  1  0  0  0  0
  8  9  1  0  0  0  0
  8 27  1  0  0  0  0
  9 10  1  0  0  0  0
  9 28  1  0  0  0  0
  9 29  1  0  0  0  0
 10 11  1  0  0  0  0
 10 12  1  0  0  0  0
 10 30  1  0  0  0  0
 11 31  1  0  0  0  0
 12 13  1  0  0  0  0
 12 32  1  0  0  0  0
 12 33  1  0  0  0  0
 13 19  1  0  0  0  0
 13 14  1  0  0  0  0
 13 46  1  0  0  0  0
 14 15  1  0  0  0  0
 14 34  1  0  0  0  0
 14 35  1  0  0  0  0
 15 16  1  0  0  0  0
 15 36  1  0  0  0  0
 15 37  1  0  0  0  0
 16 17  1  0  0  0  0
 16 18  1  0  0  0  0
 16 38  1  0  0  0  0
 17 39  1  0  0  0  0
 17 40  1  0  0  0  0
 17 41  1  0  0  0  0
 18 19  1  0  0  0  0
 18 42  1  0  0  0  0
 18 43  1  0  0  0  0
 19 44  1  0  0  0  0
 19 45  1  0  0  0  0
 20 21  1  0  0  0  0
M  CHG  1  13   1
M  END
> <s_m_source_file>
AV-unprocessed.smi

> <i_m_source_file_index>
1029

> <i_lp_mmshare_version>
43012

> <i_f3d_flags>
0

> <s_epik_input>
W0NIM11jMVtjSF1jKG9uMSlbTkhdQyg9TylbTkhdW0NIMl1bQ0BIXShbT0hdKVtDSDJdTjJbQ0gyXVtDSDJdW0NIXShbQ0gzXSlbQ0gyXVtDSDJdMg==

> <s_epik_cmdline>
J2VwaWtfcHl0aG9uJywgJy1waCcsICc3LjAnLCAnLXRuJywgJzgnLCAnLW1hJywgJzIwMCcsICctbWV0YWxfYmluZGluZycsICctaW1hZScsICc8aW5maWxlLm1hZT4nLCAnLW9tYWUnLCAnPG91dGZpbGUubWFlPic=

> <r_lp_tautomer_probability>
1

> <r_epik_Ionization_Penalty>
0.00211787

> <r_epik_Ionization_Penalty_Charging>
0.00153238

> <r_epik_Ionization_Penalty_Neutral>
0.000585488

> <r_epik_State_Penalty>
-0

> <r_epik_Charging_Adjusted_Penalty>
0.00153238

> <i_epik_Tot_Q>
1

> <i_epik_Tot_abs_Q>
1

> <r_epik_Metal_State_Penalty>
-0

> <b_epik_Metal_Only>
0

> <s_lp_Force_Field>
OPLS_2005

> <r_lp_Energy>
20.5913

> <b_lp_Chiralities_Consistent>
1

> <s_lp_Variant>
AV-unprocessed.smi:1029-2

> <Gold.Version>
5.8.1

> <Gold.Id.Protein>
6NUR|6NUR_protein|mol2

> <Gold.PLP.Fitness>
48.4318

> <Gold.PLP.PLP>
-32.7559

> <Gold.PLP.part.hbond>
-6.5888

> <Gold.PLP.part.metal>
0.0000

> <Gold.PLP.part.buried>
-1.1030

> <Gold.PLP.part.nonpolar>
-24.9588

> <Gold.PLP.part.repulsive>
1.2880

> <Gold.PLP.ligand.clash>
0.1837

> <Gold.PLP.ligand.torsion>
1.1308

> <Gold.PLP.Chemscore.Hbond>
5.9995

> <Gold.PLP.Chemscore.CHOScore>
0.0000

> <Gold.PLP.Chemscore.Metal>
0.0000

> <Gold.Chemscore.Hbonds>
donor molecule, donor type, donor heavy atom, donor atom, acceptor molecule, acceptor atom, score
      L1  H    11    31       P1  7957  0.96
      L1  H    13    46       P1  7948  2.00
      P1  H  7954  7966       L1    11  0.89
      P1  H  7989  7998       L1     7  0.40
      P1  H  7997  8010       L1    21  1.00
      P1  H  8011  8017       L1     7  0.40

> <Gold.PLP.Chemscore.Internal.Correction>
0.1228

> <Gold.Rescore>
     Score         DG    S(hbond)    S(metal)    S(lipo)     H(rot)  DE(clash)    DE(int)     intcor
     18.92     -21.11       4.10        0.00      70.29       2.46       1.12       1.06       ----

> <Gold.Chemscore.Fitness>
18.9249

> <Gold.Chemscore.DG>
-21.1076

> <Gold.Chemscore.ZeroCoef>
-5.4800

> <Gold.Chemscore.Hbond>
4.1039

> <Gold.Chemscore.Metal>
0.0000

> <Gold.Chemscore.Lipo>
70.2926

> <Gold.Chemscore.Internal_Hbond>
0.0000

> <Gold.Chemscore.DEClash>
1.1186

> <Gold.Chemscore.DEInternal>
1.0640

> <Gold.Chemscore.Rot>
2.4624

> <Gold.Chemscore.Internal.Correction>
   9.000000E+99

> <Gold.Chemscore.Hbonds>
donor molecule, donor type, donor heavy atom, donor atom, acceptor molecule, acceptor atom, score
      L1  H    11    31       P1  7957  0.83
      L1  H    13    46       P1  7948  1.00
      P1  H  7954  7966       L1    11  0.17
      P1  H  7989  7998       L1     7  0.39
      P1  H  7997  8010       L1    21  0.96
      P1  H  8011  8017       L1     7  0.39

> <Gold.Chemscore.Hbond.Weighted>
-13.7071

> <Gold.Chemscore.Metal.Weighted>
-0.0000

> <Gold.Chemscore.Lipo.Weighted>
-8.2242

> <Gold.Chemscore.Internal_Hbond.Weighted>
0.0000

> <Gold.Chemscore.DEClash.Weighted>
1.1186

> <Gold.Chemscore.DEInternal.Weighted>
1.0640

> <Gold.Chemscore.Rot.Weighted>
6.3037

> <Gold.Chemscore.Internal.Correction.Weighted>
   9.000000E+99

> <Gold.Protein.RotatedTorsions>
[ 6907 6896 6895 6894 ] final -147.14 input  -60.11 | X-H torsion
[ 7974 7965 7964 7962 ] final  167.10 input  175.53 | X-H torsion
[ 8008 7997 7996 7995 ] final   58.34 input   59.86 | X-H torsion
[ 10167 10162 10161 10158 ] final -160.57 input  -65.29 | X-H torsion
[ 10718 10713 10712 10709 ] final   39.16 input   66.30 | X-H torsion
[ 10763 10752 10751 10750 ] final  -80.21 input  -60.55 | X-H torsion
[ 11005 11000 10999 10996 ] final  -61.48 input  -57.11 | X-H torsion

> <Gold.Protein.ActiveResidues>
 VAL166  LYS551  ARG553  GLY616  TRP617  ASP618  TYR619  PRO620  LYS621  CYS622 
 ASP623  PHE694  ASN695  SER759  ASP760  ASP761  ALA762  ILE779  LEU786  VAL792 
 PHE793  MET794  SER795  GLU796  ALA797  LYS798  CYS799  TRP800  GLU811  SER814 

> <Gold.Protein.RotatedAtoms>
  151.1515  133.4904  159.2595 H   0  0  0  0  0  0  0  0  0  0  0  0  # atno 6907 bound_to 6896
  151.1549  135.0245  159.8694 H   0  0  0  0  0  0  0  0  0  0  0  0  # atno 6908 bound_to 6896
  152.5463  134.1395  159.8526 H   0  0  0  0  0  0  0  0  0  0  0  0  # atno 6909 bound_to 6896
  144.7437  139.8712  143.6389 H   0  0  0  0  0  0  0  0  0  0  0  0  # atno 7974 bound_to 7965
  155.5484  140.3486  155.4463 H   0  0  0  0  0  0  0  0  0  0  0  0  # atno 8008 bound_to 7997
  156.0601  140.1338  156.9977 H   0  0  0  0  0  0  0  0  0  0  0  0  # atno 8009 bound_to 7997
  154.4475  140.0987  156.6489 H   0  0  0  0  0  0  0  0  0  0  0  0  # atno 8010 bound_to 7997
  139.6529  144.0051  152.2174 H   0  0  0  0  0  0  0  0  0  0  0  0  # atno 10167 bound_to 10162
  157.3673  130.7682  149.7092 H   0  0  0  0  0  0  0  0  0  0  0  0  # atno 10718 bound_to 10713
  154.5484  135.5669  153.6900 H   0  0  0  0  0  0  0  0  0  0  0  0  # atno 10763 bound_to 10752
  152.9982  135.6245  154.2408 H   0  0  0  0  0  0  0  0  0  0  0  0  # atno 10764 bound_to 10752
  154.2341  135.2865  155.2858 H   0  0  0  0  0  0  0  0  0  0  0  0  # atno 10765 bound_to 10752
  141.1326  133.6630  156.5382 H   0  0  0  0  0  0  0  0  0  0  0  0  # atno 11005 bound_to 11000
  146.1279  139.4308  143.0187 LP  0  0  0  0  0  0  0  0  0  0  0  0  # atno 17320 bound_to 7965
  145.7207  141.0076  143.1404 LP  0  0  0  0  0  0  0  0  0  0  0  0  # atno 17321 bound_to 7965
  139.9770  144.6455  150.7936 LP  0  0  0  0  0  0  0  0  0  0  0  0  # atno 17342 bound_to 10162
  140.7546  143.3030  151.3032 LP  0  0  0  0  0  0  0  0  0  0  0  0  # atno 17343 bound_to 10162
  155.9748  130.4097  150.3893 LP  0  0  0  0  0  0  0  0  0  0  0  0  # atno 17370 bound_to 10713
  157.1978  131.0431  151.2666 LP  0  0  0  0  0  0  0  0  0  0  0  0  # atno 17371 bound_to 10713
  140.4161  134.7229  157.4863 LP  0  0  0  0  0  0  0  0  0  0  0  0  # atno 17394 bound_to 11000
  140.0393  134.6291  155.9002 LP  0  0  0  0  0  0  0  0  0  0  0  0  # atno 17395 bound_to 11000

$$$$
