#       Name:                AV-unprocessed.smi:623
#       Creating user name   scv26
#       Creation time:       Fri Mar 27 00:01:27 2020


#       File generated by GOLD software.
#

@<TRIPOS>MOLECULE
AV-unprocessed.smi:623
    51    53     1
SMALL
NO_CHARGES


@<TRIPOS>ATOM
      1 ****        -0.3723  -1.6793   0.1303 C.3            1 S1                 0.0000
      2 ****        -1.6230  -0.9918  -0.4879 C.3            1 S1                 0.0000
      3 ****        -2.1882  -2.0204  -1.5080 C.3            1 S1                 0.0000
      4 ****        -2.6512  -0.4953   0.5485 C.3            1 S1                 0.0000
      5 ****        -3.7126   0.2275  -0.3120 C.3            1 S1                 0.0000
      6 ****        -2.8603   0.8664  -1.4282 C.3            1 S1                 0.0000
      7 ****        -1.4183   0.4476  -1.0402 C.3            1 S1                 0.0000
      8 ****        -0.4281   0.5845  -2.2137 C.3            1 S1                 0.0000
      9 ****        -1.0796   1.3058   0.2183 C.3            1 S1                 0.0000
     10 ****         0.3499   1.3497   0.5124 N.am           1 S1                 0.0000
     11 ****         1.1551   2.4239   0.4890 C.2            1 S1                 0.0000
     12 ****         0.7545   3.5612   0.2458 O.2            1 S1                 0.0000
     13 ****         2.6525   2.1931   0.7574 C.3            1 S1                 0.0000
     14 ****         3.0233   0.7764   0.9183 N.am           1 S1                 0.0000
     15 ****         3.3874   0.0251  -0.1905 C.2            1 S1                 0.0000
     16 ****         3.6937  -1.2922  -0.1309 C.2            1 S1                 0.0000
     17 ****         3.6527  -2.0028   1.1424 C.2            1 S1                 0.0000
     18 ****         3.9097  -3.1943   1.2980 O.2            1 S1                 0.0000
     19 ****         3.2831  -1.2131   2.2342 N.am           1 S1                 0.0000
     20 ****         2.9653   0.1447   2.1799 C.2            1 S1                 0.0000
     21 ****         2.6362   0.7436   3.2027 O.2            1 S1                 0.0000
     22 ****        -1.8892   0.6006   1.3288 C.3            1 S1                 0.0000
     23 ****         3.2390  -1.6626   3.1373 H              1 S1                 0.0000
     24 ****        -0.6343  -2.6566   0.5368 H              1 S1                 0.0000
     25 ****         0.1021  -1.1404   0.9453 H              1 S1                 0.0000
     26 ****         0.3952  -1.8449  -0.6261 H              1 S1                 0.0000
     27 ****        -3.0771  -1.7000  -2.0465 H              1 S1                 0.0000
     28 ****        -2.4540  -2.9517  -1.0067 H              1 S1                 0.0000
     29 ****        -1.4408  -2.2662  -2.2628 H              1 S1                 0.0000
     30 ****        -3.0697  -1.2706   1.1907 H              1 S1                 0.0000
     31 ****        -4.4427  -0.4709  -0.7212 H              1 S1                 0.0000
     32 ****        -4.2685   0.9732   0.2576 H              1 S1                 0.0000
     33 ****        -3.1466   0.4832  -2.4078 H              1 S1                 0.0000
     34 ****        -2.9884   1.9487  -1.4731 H              1 S1                 0.0000
     35 ****        -0.3290   1.6266  -2.5179 H              1 S1                 0.0000
     36 ****        -0.7633   0.0184  -3.0828 H              1 S1                 0.0000
     37 ****         0.5656   0.2207  -1.9519 H              1 S1                 0.0000
     38 ****        -1.4473   2.3258   0.0944 H              1 S1                 0.0000
     39 ****         0.7813   0.4626   0.7276 H              1 S1                 0.0000
     40 ****         3.2157   2.6246  -0.0714 H              1 S1                 0.0000
     41 ****         2.9451   2.7758   1.6326 H              1 S1                 0.0000
     42 ****         3.4217   0.5098  -1.1560 H              1 S1                 0.0000
     43 ****         3.9670  -1.8242  -1.0307 H              1 S1                 0.0000
     44 ****        -2.5647   1.2893   1.8377 H              1 S1                 0.0000
     45 ****        -1.2488   0.1690   2.0985 H              1 S1                 0.0000
     46 ****        -0.2138   3.7196   0.0529 LP             1 S1                 0.0000
     47 ****         1.3972   4.3273   0.2411 LP             1 S1                 0.0000
     48 ****         4.1721  -3.7559   0.5133 LP             1 S1                 0.0000
     49 ****         3.8566  -3.6024   2.2094 LP             1 S1                 0.0000
     50 ****         2.3975   1.7137   3.1592 LP             1 S1                 0.0000
     51 ****         2.6075   0.2604   4.0778 LP             1 S1                 0.0000
@<TRIPOS>BOND
    1    1    2 1     
    2    1   24 1     
    3    1   25 1     
    4    1   26 1     
    5    2    7 1     
    6    2    3 1     
    7    2    4 1     
    8    3   27 1     
    9    3   28 1     
   10    3   29 1     
   11    4   22 1     
   12    4    5 1     
   13    4   30 1     
   14    5    6 1     
   15    5   31 1     
   16    5   32 1     
   17    6    7 1     
   18    6   33 1     
   19    6   34 1     
   20    7    8 1     
   21    7    9 1     
   22    8   35 1     
   23    8   36 1     
   24    8   37 1     
   25    9   10 1     
   26    9   22 1     
   27    9   38 1     
   28   10   11 am    
   29   10   39 1     
   30   11   12 2     
   31   11   13 1     
   32   13   14 1     
   33   13   40 1     
   34   13   41 1     
   35   14   20 1     
   36   14   15 1     
   37   15   16 2     
   38   15   42 1     
   39   16   17 1     
   40   16   43 1     
   41   17   18 2     
   42   17   19 1     
   43   19   23 1     
   44   19   20 1     
   45   20   21 2     
   46   22   44 1     
   47   22   45 1     
   48   12   46 1     
   49   12   47 1     
   50   18   48 1     
   51   18   49 1     
   52   21   50 1     
   53   21   51 1     
@<TRIPOS>SUBSTRUCTURE
      1 S1             1
@<TRIPOS>SET
LONE_PAIRS      STATIC     ATOMS    <user>   **** ""
6 46 47 48 49 50 51
DONOR_HYDROGENS      STATIC     ATOMS    <user>   **** ""
2 39 23
ATOM$BLUE        STATIC     ATOMS    COLORGROUP SYSTEM
6 46 47 48 49 50 51
ATOM$RED        STATIC     ATOMS    COLORGROUP SYSTEM
2 39 23
