#       Name:                AV-unprocessed.smi:1365
#       Creating user name   scv26
#       Creation time:       Fri Mar 27 05:16:22 2020


#       File generated by GOLD software.
#

@<TRIPOS>MOLECULE
AV-unprocessed.smi:1365
    47    48     1
SMALL
NO_CHARGES


@<TRIPOS>ATOM
      1 ****        -7.0253   4.6464   2.2361 C.3            1 S1                 0.0000
      2 ****        -6.0306   3.8737   1.4392 C.2            1 S1                 0.0000
      3 ****        -5.2220   2.8148   1.7407 C.2            1 S1                 0.0000
      4 ****        -4.5221   2.5843   0.5247 C.2            1 S1                 0.0000
      5 ****        -3.6069   1.6268   0.3088 N.pl3          1 S1                -1.0000
      6 ****        -2.3147   1.8295   0.6537 C.2            1 S1                 0.0000
      7 ****        -1.8493   2.8342   1.1966 O.2            1 S1                 0.0000
      8 ****        -1.5094   0.8033   0.3487 N.am           1 S1                 0.0000
      9 ****        -0.0744   0.7600   0.5944 C.3            1 S1                 0.0000
     10 ****         0.5499  -0.4643  -0.0873 C.3            1 S1                 0.0000
     11 ****         2.0676  -0.5476   0.1458 C.3            1 S1                 0.0000
     12 ****         2.6681  -1.7639  -0.4583 N.4            1 S1                 1.0000
     13 ****         3.9400  -2.1513   0.2066 C.3            1 S1                 0.0000
     14 ****         4.4738  -3.4853  -0.3427 C.3            1 S1                 0.0000
     15 ****         4.6534  -3.4222  -1.8647 C.3            1 S1                 0.0000
     16 ****         3.3396  -2.9900  -2.5281 C.3            1 S1                 0.0000
     17 ****         2.8315  -1.6651  -1.9342 C.3            1 S1                 0.0000
     18 ****        -4.8876   3.4177  -0.4349 N.2            1 S1                 0.0000
     19 ****        -5.8498   4.2527   0.1454 O.3            1 S1                 0.0000
     20 ****        -7.7489   3.9777   2.7023 H              1 S1                 0.0000
     21 ****        -7.5718   5.3502   1.6079 H              1 S1                 0.0000
     22 ****        -6.5297   5.2123   3.0250 H              1 S1                 0.0000
     23 ****        -5.1390   2.2917   2.6814 H              1 S1                 0.0000
     24 ****        -1.9286  -0.0019  -0.0927 H              1 S1                 0.0000
     25 ****         0.3897   1.6721   0.2154 H              1 S1                 0.0000
     26 ****         0.1029   0.7285   1.6705 H              1 S1                 0.0000
     27 ****         0.0745  -1.3709   0.2899 H              1 S1                 0.0000
     28 ****         0.3296  -0.4199  -1.1536 H              1 S1                 0.0000
     29 ****         2.5695   0.3436  -0.2343 H              1 S1                 0.0000
     30 ****         2.2381  -0.5604   1.2233 H              1 S1                 0.0000
     31 ****         4.6801  -1.3618   0.0662 H              1 S1                 0.0000
     32 ****         3.7803  -2.2490   1.2812 H              1 S1                 0.0000
     33 ****         5.4231  -3.7317   0.1340 H              1 S1                 0.0000
     34 ****         3.7821  -4.2897  -0.0883 H              1 S1                 0.0000
     35 ****         5.4441  -2.7135  -2.1149 H              1 S1                 0.0000
     36 ****         4.9695  -4.3926  -2.2489 H              1 S1                 0.0000
     37 ****         3.4833  -2.8859  -3.6040 H              1 S1                 0.0000
     38 ****         2.5857  -3.7662  -2.3906 H              1 S1                 0.0000
     39 ****         1.8839  -1.4096  -2.4069 H              1 S1                 0.0000
     40 ****         3.5279  -0.8588  -2.1704 H              1 S1                 0.0000
     41 ****         2.0200  -2.5184  -0.2824 H              1 S1                 0.0000
     42 ****        -3.8811   0.7604  -0.1085 LP             1 S1                 0.0000
     43 ****        -2.4479   3.6022   1.4241 LP             1 S1                 0.0000
     44 ****        -0.8732   2.8809   1.4093 LP             1 S1                 0.0000
     45 ****        -4.5486   3.4455  -1.3753 LP             1 S1                 0.0000
     46 ****        -5.5358   5.2016   0.1131 LP             1 S1                 0.0000
     47 ****        -6.7125   4.1700  -0.3535 LP             1 S1                 0.0000
@<TRIPOS>BOND
    1    1    2 1     
    2    1   20 1     
    3    1   21 1     
    4    1   22 1     
    5    2   19 1     
    6    2    3 2     
    7    3    4 1     
    8    3   23 1     
    9    4    5 1     
   10    4   18 2     
   11    5    6 1     
   12    6    7 2     
   13    6    8 am    
   14    8    9 1     
   15    8   24 1     
   16    9   10 1     
   17    9   25 1     
   18    9   26 1     
   19   10   11 1     
   20   10   27 1     
   21   10   28 1     
   22   11   12 1     
   23   11   29 1     
   24   11   30 1     
   25   12   17 1     
   26   12   13 1     
   27   12   41 1     
   28   13   14 1     
   29   13   31 1     
   30   13   32 1     
   31   14   15 1     
   32   14   33 1     
   33   14   34 1     
   34   15   16 1     
   35   15   35 1     
   36   15   36 1     
   37   16   17 1     
   38   16   37 1     
   39   16   38 1     
   40   17   39 1     
   41   17   40 1     
   42   18   19 1     
   43    5   42 1     
   44    7   43 1     
   45    7   44 1     
   46   18   45 1     
   47   19   46 1     
   48   19   47 1     
@<TRIPOS>SUBSTRUCTURE
      1 S1             1
@<TRIPOS>SET
LONE_PAIRS      STATIC     ATOMS    <user>   **** ""
6 42 43 44 45 46 47
DONOR_HYDROGENS      STATIC     ATOMS    <user>   **** ""
2 24 41
ATOM$BLUE        STATIC     ATOMS    COLORGROUP SYSTEM
6 42 43 44 45 46 47
ATOM$RED        STATIC     ATOMS    COLORGROUP SYSTEM
2 24 41
