AV-unprocessed.smi:674|AV-procd|sdf|3300|dock4
  -GOLD-   22720 0263D 1   1.00000     0.00000
 Structure written by MMmdl.
 47 48  0  0  0  0  0  0  0  0  1 V2000
  146.8561  128.9280  151.9017 C   0  0  0  0  0  0  0  0  0  0  0  0
  146.2858  129.9709  152.8697 C   0  0  0  0  0  0  0  0  0  0  0  0
  147.3142  130.9908  153.2718 C   0  0  0  0  0  0  0  0  0  0  0  0
  147.2958  132.3944  153.0255 C   0  0  0  0  0  0  0  0  0  0  0  0
  148.4630  132.8180  153.6002 C   0  0  0  0  0  0  0  0  0  0  0  0
  148.9731  134.0767  153.6630 N   0  0  0  0  0  0  0  0  0  0  0  0
  149.5775  134.6886  154.6962 C   0  0  0  0  0  0  0  0  0  0  0  0
  149.8196  134.1768  155.7896 O   0  0  0  0  0  0  0  0  0  0  0  0
  149.8953  135.9533  154.3892 N   0  0  0  0  0  0  0  0  0  0  0  0
  150.5535  136.8817  155.3021 C   0  0  1  0  0  0  0  0  0  0  0  0
  151.5999  137.7494  154.6063 C   0  0  0  0  0  0  0  0  0  0  0  0
  151.1520  138.8854  155.5445 C   0  0  1  0  0  0  0  0  0  0  0  0
  151.9358  139.0918  156.8499 C   0  0  0  0  0  0  0  0  0  0  0  0
  151.0106  140.1315  154.8603 O   0  0  0  0  0  0  0  0  0  0  0  0
  150.4078  141.1894  155.5943 C   0  0  0  0  0  0  0  0  0  0  0  0
  149.7585  138.1785  155.6032 C   0  0  0  0  0  0  0  0  0  0  0  0
  148.7273  138.6231  154.5462 C   0  0  0  0  0  0  0  0  0  0  0  0
  149.0225  138.2148  156.9464 C   0  0  0  0  0  0  0  0  0  0  0  0
  149.1141  131.7289  154.1388 N   0  0  0  0  0  0  0  0  0  0  0  0
  150.3754  131.6500  154.8503 C   0  0  0  0  0  0  0  0  0  0  0  0
  148.3985  130.6024  153.9346 N   0  0  0  0  0  0  0  0  0  0  0  0
  146.0923  128.2050  151.6149 H   0  0  0  0  0  0  0  0  0  0  0  0
  147.6811  128.3778  152.3552 H   0  0  0  0  0  0  0  0  0  0  0  0
  147.2275  129.3989  150.9911 H   0  0  0  0  0  0  0  0  0  0  0  0
  145.4357  130.4685  152.4022 H   0  0  0  0  0  0  0  0  0  0  0  0
  145.8913  129.4686  153.7539 H   0  0  0  0  0  0  0  0  0  0  0  0
  146.5437  132.9712  152.5089 H   0  0  0  0  0  0  0  0  0  0  0  0
  148.8715  134.6239  152.8212 H   0  0  0  0  0  0  0  0  0  0  0  0
  149.6622  136.3001  153.4703 H   0  0  0  0  0  0  0  0  0  0  0  0
  150.9540  136.4068  156.2005 H   0  0  0  0  0  0  0  0  0  0  0  0
  152.6286  137.4172  154.7492 H   0  0  0  0  0  0  0  0  0  0  0  0
  151.3845  137.9387  153.5529 H   0  0  0  0  0  0  0  0  0  0  0  0
  151.9455  138.1923  157.4650 H   0  0  0  0  0  0  0  0  0  0  0  0
  151.5026  139.8925  157.4494 H   0  0  0  0  0  0  0  0  0  0  0  0
  152.9789  139.3450  156.6624 H   0  0  0  0  0  0  0  0  0  0  0  0
  150.4356  142.0993  154.9950 H   0  0  0  0  0  0  0  0  0  0  0  0
  150.9361  141.3930  156.5256 H   0  0  0  0  0  0  0  0  0  0  0  0
  149.3619  140.9847  155.8212 H   0  0  0  0  0  0  0  0  0  0  0  0
  148.3580  139.6288  154.7493 H   0  0  0  0  0  0  0  0  0  0  0  0
  147.8608  137.9614  154.5245 H   0  0  0  0  0  0  0  0  0  0  0  0
  149.1444  138.6343  153.5392 H   0  0  0  0  0  0  0  0  0  0  0  0
  148.7657  139.2351  157.2322 H   0  0  0  0  0  0  0  0  0  0  0  0
  149.6219  137.7918  157.7524 H   0  0  0  0  0  0  0  0  0  0  0  0
  148.0966  137.6395  156.9128 H   0  0  0  0  0  0  0  0  0  0  0  0
  150.9162  132.5937  154.7819 H   0  0  0  0  0  0  0  0  0  0  0  0
  150.9938  130.8614  154.4202 H   0  0  0  0  0  0  0  0  0  0  0  0
  150.1885  131.4245  155.9005 H   0  0  0  0  0  0  0  0  0  0  0  0
  1  2  1  0  0  0  0
  1 22  1  0  0  0  0
  1 23  1  0  0  0  0
  1 24  1  0  0  0  0
  2  3  1  0  0  0  0
  2 25  1  0  0  0  0
  2 26  1  0  0  0  0
  3 21  2  0  0  0  0
  3  4  1  0  0  0  0
  4  5  2  0  0  0  0
  4 27  1  0  0  0  0
  5  6  1  0  0  0  0
  5 19  1  0  0  0  0
  6  7  1  0  0  0  0
  6 28  1  0  0  0  0
  7  8  2  0  0  0  0
  7  9  1  0  0  0  0
  9 10  1  0  0  0  0
  9 29  1  0  0  0  0
 10 16  1  0  0  0  0
 10 11  1  0  0  0  0
 10 30  1  0  0  0  0
 11 12  1  0  0  0  0
 11 31  1  0  0  0  0
 11 32  1  0  0  0  0
 12 13  1  0  0  0  0
 12 14  1  0  0  0  0
 12 16  1  0  0  0  0
 13 33  1  0  0  0  0
 13 34  1  0  0  0  0
 13 35  1  0  0  0  0
 14 15  1  0  0  0  0
 15 36  1  0  0  0  0
 15 37  1  0  0  0  0
 15 38  1  0  0  0  0
 16 17  1  0  0  0  0
 16 18  1  0  0  0  0
 17 39  1  0  0  0  0
 17 40  1  0  0  0  0
 17 41  1  0  0  0  0
 18 42  1  0  0  0  0
 18 43  1  0  0  0  0
 18 44  1  0  0  0  0
 19 20  1  0  0  0  0
 19 21  1  0  0  0  0
 20 45  1  0  0  0  0
 20 46  1  0  0  0  0
 20 47  1  0  0  0  0
M  END
> <s_m_source_file>
AV-unprocessed.smi

> <i_m_source_file_index>
674

> <i_lp_mmshare_version>
43012

> <i_f3d_flags>
0

> <s_epik_input>
W0NIM11bQ0gyXWMxW2NIXWMobihuMSlbQ0gzXSlbTkhdQyg9TylbTkhdW0NAQEhdKEMyKFtDSDNdKVtDSDNdKVtDSDJdW0NAQF0yKFtDSDNdKU9bQ0gzXQ==

> <s_epik_cmdline>
J2VwaWtfcHl0aG9uJywgJy1waCcsICc3LjAnLCAnLXRuJywgJzgnLCAnLW1hJywgJzIwMCcsICctbWV0YWxfYmluZGluZycsICctaW1hZScsICc8aW5maWxlLm1hZT4nLCAnLW9tYWUnLCAnPG91dGZpbGUubWFlPic=

> <r_lp_tautomer_probability>
1

> <r_epik_Ionization_Penalty>
0.000101626

> <r_epik_Ionization_Penalty_Charging>
0

> <r_epik_Ionization_Penalty_Neutral>
0.000101626

> <r_epik_State_Penalty>
-0

> <r_epik_Charging_Adjusted_Penalty>
0

> <i_epik_Tot_Q>
0

> <i_epik_Tot_abs_Q>
0

> <r_epik_Metal_State_Penalty>
-0

> <b_epik_Metal_Only>
0

> <s_lp_Force_Field>
OPLS_2005

> <r_lp_Energy>
22.8754

> <b_lp_Chiralities_Consistent>
1

> <s_lp_Variant>
AV-unprocessed.smi:674-2

> <Gold.Version>
5.8.1

> <Gold.Id.Protein>
6NUR|6NUR_protein|mol2

> <Gold.PLP.Fitness>
41.1661

> <Gold.PLP.PLP>
-34.1219

> <Gold.PLP.part.hbond>
-3.5716

> <Gold.PLP.part.metal>
0.0000

> <Gold.PLP.part.buried>
-3.3138

> <Gold.PLP.part.nonpolar>
-27.0776

> <Gold.PLP.part.repulsive>
0.2118

> <Gold.PLP.ligand.clash>
0.0000

> <Gold.PLP.ligand.torsion>
0.5696

> <Gold.PLP.Chemscore.Hbond>
2.6000

> <Gold.PLP.Chemscore.CHOScore>
0.0000

> <Gold.PLP.Chemscore.Metal>
0.0000

> <Gold.Chemscore.Hbonds>
donor molecule, donor type, donor heavy atom, donor atom, acceptor molecule, acceptor atom, score
      L1  H     6    28       P1  7948  0.55
      L1  H     9    29       P1  7948  1.00
      P1  H  7989  7998       L1    14  1.00

> <Gold.PLP.Chemscore.Internal.Correction>
0.3833

> <Gold.Rescore>
     Score         DG    S(hbond)    S(metal)    S(lipo)     H(rot)  DE(clash)    DE(int)     intcor
     14.90     -17.83       2.37        0.00      67.86       1.37       0.04       2.89       ----

> <Gold.Chemscore.Fitness>
14.8973

> <Gold.Chemscore.DG>
-17.8347

> <Gold.Chemscore.ZeroCoef>
-5.4800

> <Gold.Chemscore.Hbond>
2.3685

> <Gold.Chemscore.Metal>
0.0000

> <Gold.Chemscore.Lipo>
67.8649

> <Gold.Chemscore.Internal_Hbond>
0.0000

> <Gold.Chemscore.DEClash>
0.0424

> <Gold.Chemscore.DEInternal>
2.8950

> <Gold.Chemscore.Rot>
1.3658

> <Gold.Chemscore.Internal.Correction>
   9.000000E+99

> <Gold.Chemscore.Hbonds>
donor molecule, donor type, donor heavy atom, donor atom, acceptor molecule, acceptor atom, score
      L1  H     6    28       P1  7948  0.03
      L1  H     9    29       P1  7948  0.34
      P1  H  7989  7998       L1    14  0.45

> <Gold.Chemscore.Hbond.Weighted>
-7.9108

> <Gold.Chemscore.Metal.Weighted>
-0.0000

> <Gold.Chemscore.Lipo.Weighted>
-7.9402

> <Gold.Chemscore.Internal_Hbond.Weighted>
0.0000

> <Gold.Chemscore.DEClash.Weighted>
0.0424

> <Gold.Chemscore.DEInternal.Weighted>
2.8950

> <Gold.Chemscore.Rot.Weighted>
3.4963

> <Gold.Chemscore.Internal.Correction.Weighted>
   9.000000E+99

> <Gold.Protein.RotatedTorsions>
[ 6907 6896 6895 6894 ] final   27.87 input  -60.11 | X-H torsion
[ 7974 7965 7964 7962 ] final    0.84 input  175.53 | X-H torsion
[ 8008 7997 7996 7995 ] final  -39.22 input   59.86 | X-H torsion
[ 10167 10162 10161 10158 ] final    1.48 input  -65.29 | X-H torsion
[ 10718 10713 10712 10709 ] final   49.36 input   66.30 | X-H torsion
[ 10763 10752 10751 10750 ] final   51.61 input  -60.55 | X-H torsion
[ 11005 11000 10999 10996 ] final  -52.73 input  -57.11 | X-H torsion

> <Gold.Protein.ActiveResidues>
 VAL166  LYS551  ARG553  GLY616  TRP617  ASP618  TYR619  PRO620  LYS621  CYS622 
 ASP623  PHE694  ASN695  SER759  ASP760  ASP761  ALA762  ILE779  LEU786  VAL792 
 PHE793  MET794  SER795  GLU796  ALA797  LYS798  CYS799  TRP800  GLU811  SER814 

> <Gold.Protein.RotatedAtoms>
  152.0086  134.9888  160.0567 H   0  0  0  0  0  0  0  0  0  0  0  0  # atno 6907 bound_to 6896
  152.1450  133.4482  159.4794 H   0  0  0  0  0  0  0  0  0  0  0  0  # atno 6908 bound_to 6896
  150.6869  134.2177  159.4427 H   0  0  0  0  0  0  0  0  0  0  0  0  # atno 6909 bound_to 6896
  146.2437  140.1077  142.8345 H   0  0  0  0  0  0  0  0  0  0  0  0  # atno 7974 bound_to 7965
  154.4026  140.1557  156.2829 H   0  0  0  0  0  0  0  0  0  0  0  0  # atno 8008 bound_to 7997
  155.8854  140.3441  155.5895 H   0  0  0  0  0  0  0  0  0  0  0  0  # atno 8009 bound_to 7997
  155.7619  140.0819  157.2141 H   0  0  0  0  0  0  0  0  0  0  0  0  # atno 8010 bound_to 7997
  140.6681  143.7125  150.7867 H   0  0  0  0  0  0  0  0  0  0  0  0  # atno 10167 bound_to 10162
  157.4778  130.8296  149.8059 H   0  0  0  0  0  0  0  0  0  0  0  0  # atno 10718 bound_to 10713
  152.9786  135.5840  154.4444 H   0  0  0  0  0  0  0  0  0  0  0  0  # atno 10763 bound_to 10752
  154.4041  135.2769  155.2080 H   0  0  0  0  0  0  0  0  0  0  0  0  # atno 10764 bound_to 10752
  154.3898  135.6128  153.5891 H   0  0  0  0  0  0  0  0  0  0  0  0  # atno 10765 bound_to 10752
  141.0939  133.6628  156.4067 H   0  0  0  0  0  0  0  0  0  0  0  0  # atno 11005 bound_to 11000
  145.0514  140.9020  143.4993 LP  0  0  0  0  0  0  0  0  0  0  0  0  # atno 17320 bound_to 7965
  145.1175  139.2715  143.5605 LP  0  0  0  0  0  0  0  0  0  0  0  0  # atno 17321 bound_to 7965
  140.0805  143.4973  152.2532 LP  0  0  0  0  0  0  0  0  0  0  0  0  # atno 17342 bound_to 10162
  139.5937  144.7559  151.3337 LP  0  0  0  0  0  0  0  0  0  0  0  0  # atno 17343 bound_to 10162
  156.0106  130.3835  150.2278 LP  0  0  0  0  0  0  0  0  0  0  0  0  # atno 17370 bound_to 10713
  157.0463  131.0050  151.3267 LP  0  0  0  0  0  0  0  0  0  0  0  0  # atno 17371 bound_to 10713
  140.5186  134.6326  157.5310 LP  0  0  0  0  0  0  0  0  0  0  0  0  # atno 17394 bound_to 11000
  139.9771  134.7197  155.9928 LP  0  0  0  0  0  0  0  0  0  0  0  0  # atno 17395 bound_to 11000

$$$$
