#       Name:                AV-unprocessed.smi:1762
#       Creating user name   scv26
#       Creation time:       Fri Mar 27 08:32:26 2020


#       File generated by GOLD software.
#

@<TRIPOS>MOLECULE
AV-unprocessed.smi:1762
    58    59     1
SMALL
NO_CHARGES


@<TRIPOS>ATOM
      1 ****        -3.0394  -3.1792  -1.5195 C.3            1 S1                 0.0000
      2 ****        -3.1167  -1.6446  -1.4320 C.3            1 S1                 0.0000
      3 ****        -2.5891  -1.0803  -0.0977 C.3            1 S1                 0.0000
      4 ****        -1.1265  -1.1322   0.0215 N.3            1 S1                 0.0000
      5 ****        -0.6291  -0.6111   1.3262 C.3            1 S1                 0.0000
      6 ****         0.9134  -0.5014   1.3920 C.2            1 S1                 0.0000
      7 ****         1.6180  -1.4901   1.1849 O.2            1 S1                 0.0000
      8 ****         1.4207   0.7128   1.6579 N.am           1 S1                 0.0000
      9 ****         2.8438   1.0281   1.7309 C.3            1 S1                 0.0000
     10 ****         3.4789   1.2598   0.3455 C.3            1 S1                 0.0000
     11 ****         2.8142   2.3702  -0.4518 C.ar           1 S1                 0.0000
     12 ****         3.2396   3.7080  -0.3075 C.ar           1 S1                 0.0000
     13 ****         2.5820   4.7059  -1.0528 C.ar           1 S1                 0.0000
     14 ****         1.5288   4.3305  -1.9090 C.ar           1 S1                 0.0000
     15 ****         1.1787   2.9679  -1.9817 C.ar           1 S1                 0.0000
     16 ****         1.8027   2.0042  -1.2712 N.ar           1 S1                 0.0000
     17 ****        -1.1837  -1.3545   2.5881 C.3            1 S1                 0.0000
     18 ****        -0.7132  -0.7411   3.9226 C.3            1 S1                 0.0000
     19 ****        -0.9295  -2.8749   2.5769 C.3            1 S1                 0.0000
     20 ****        -0.5413  -0.4718  -1.1564 C.3            1 S1                 0.0000
     21 ****        -1.0399  -1.0650  -2.4862 C.3            1 S1                 0.0000
     22 ****        -0.5035  -0.2952  -3.6984 C.3            1 S1                 0.0000
     23 ****        -2.4620  -1.0159  -2.5311 O.3            1 S1                 0.0000
     24 ****        -3.6477  -3.6434  -0.7430 H              1 S1                 0.0000
     25 ****        -2.0212  -3.5475  -1.3953 H              1 S1                 0.0000
     26 ****        -3.4087  -3.5328  -2.4822 H              1 S1                 0.0000
     27 ****        -4.1704  -1.3768  -1.5142 H              1 S1                 0.0000
     28 ****        -2.9260  -0.0478   0.0080 H              1 S1                 0.0000
     29 ****        -3.0702  -1.6442   0.6987 H              1 S1                 0.0000
     30 ****        -0.9954   0.4146   1.4076 H              1 S1                 0.0000
     31 ****         0.7748   1.4747   1.8055 H              1 S1                 0.0000
     32 ****         2.9550   1.9277   2.3368 H              1 S1                 0.0000
     33 ****         3.3761   0.2364   2.2604 H              1 S1                 0.0000
     34 ****         4.5361   1.4988   0.4656 H              1 S1                 0.0000
     35 ****         3.4461   0.3363  -0.2348 H              1 S1                 0.0000
     36 ****         4.0478   3.9653   0.3611 H              1 S1                 0.0000
     37 ****         2.8788   5.7408  -0.9677 H              1 S1                 0.0000
     38 ****         1.0020   5.0687  -2.4954 H              1 S1                 0.0000
     39 ****         0.3751   2.6429  -2.6257 H              1 S1                 0.0000
     40 ****        -2.2631  -1.2145   2.6068 H              1 S1                 0.0000
     41 ****         0.3507  -0.9027   4.0979 H              1 S1                 0.0000
     42 ****        -1.2485  -1.1839   4.7630 H              1 S1                 0.0000
     43 ****        -0.8987   0.3329   3.9490 H              1 S1                 0.0000
     44 ****         0.1309  -3.1112   2.6608 H              1 S1                 0.0000
     45 ****        -1.3029  -3.3374   1.6631 H              1 S1                 0.0000
     46 ****        -1.4363  -3.3585   3.4124 H              1 S1                 0.0000
     47 ****        -0.7643   0.5961  -1.1252 H              1 S1                 0.0000
     48 ****         0.5438  -0.5655  -1.1670 H              1 S1                 0.0000
     49 ****        -0.7082  -2.1003  -2.5675 H              1 S1                 0.0000
     50 ****         0.5867  -0.2940  -3.7118 H              1 S1                 0.0000
     51 ****        -0.8396   0.7418  -3.6875 H              1 S1                 0.0000
     52 ****        -0.8473  -0.7461  -4.6296 H              1 S1                 0.0000
     53 ****        -0.8239  -2.0853   0.0285 LP             1 S1                 0.0000
     54 ****         1.1940  -2.3706   0.9727 LP             1 S1                 0.0000
     55 ****         2.6140  -1.4124   1.2289 LP             1 S1                 0.0000
     56 ****         1.5246   1.0467  -1.3488 LP             1 S1                 0.0000
     57 ****        -2.7397  -0.0554  -2.5506 LP             1 S1                 0.0000
     58 ****        -2.7625  -1.4669  -3.3716 LP             1 S1                 0.0000
@<TRIPOS>BOND
    1    1    2 1     
    2    1   24 1     
    3    1   25 1     
    4    1   26 1     
    5    2   23 1     
    6    2    3 1     
    7    2   27 1     
    8    3    4 1     
    9    3   28 1     
   10    3   29 1     
   11    4    5 1     
   12    4   20 1     
   13    5    6 1     
   14    5   17 1     
   15    5   30 1     
   16    6    7 2     
   17    6    8 am    
   18    8    9 1     
   19    8   31 1     
   20    9   10 1     
   21    9   32 1     
   22    9   33 1     
   23   10   11 1     
   24   10   34 1     
   25   10   35 1     
   26   11   16 ar    
   27   11   12 ar    
   28   12   13 ar    
   29   12   36 1     
   30   13   14 ar    
   31   13   37 1     
   32   14   15 ar    
   33   14   38 1     
   34   15   16 ar    
   35   15   39 1     
   36   17   18 1     
   37   17   19 1     
   38   17   40 1     
   39   18   41 1     
   40   18   42 1     
   41   18   43 1     
   42   19   44 1     
   43   19   45 1     
   44   19   46 1     
   45   20   21 1     
   46   20   47 1     
   47   20   48 1     
   48   21   22 1     
   49   21   23 1     
   50   21   49 1     
   51   22   50 1     
   52   22   51 1     
   53   22   52 1     
   54    4   53 1     
   55    7   54 1     
   56    7   55 1     
   57   16   56 1     
   58   23   57 1     
   59   23   58 1     
@<TRIPOS>SUBSTRUCTURE
      1 S1             1
@<TRIPOS>SET
LONE_PAIRS      STATIC     ATOMS    <user>   **** ""
6 53 54 55 56 57 58
DONOR_HYDROGENS      STATIC     ATOMS    <user>   **** ""
1 31
ATOM$BLUE        STATIC     ATOMS    COLORGROUP SYSTEM
6 53 54 55 56 57 58
ATOM$RED        STATIC     ATOMS    COLORGROUP SYSTEM
1 31
