AV-unprocessed.smi:3259|AV-procd|sdf|12473|dock2
  -GOLD-   2272018373D 1   1.00000     0.00000
 Structure written by MMmdl.
 39 40  0  0  0  0  0  0  0  0  1 V2000
  152.2817  143.8720  161.5051 C   0  0  0  0  0  0  0  0  0  0  0  0
  151.7787  143.0380  160.4685 O   0  0  0  0  0  0  0  0  0  0  0  0
  151.5732  143.6378  159.1819 C   0  0  2  0  0  0  0  0  0  0  0  0
  152.8000  144.4611  158.7695 C   0  0  0  0  0  0  0  0  0  0  0  0
  150.1744  144.2802  159.1106 C   0  0  0  0  0  0  0  0  0  0  0  0
  149.6350  142.8911  158.7750 C   0  0  1  0  0  0  0  0  0  0  0  0
  148.5681  142.9265  157.7825 N   0  0  0  0  0  0  0  0  0  0  0  0
  147.6337  141.9749  157.6376 C   0  0  0  0  0  0  0  0  0  0  0  0
  147.5266  141.0096  158.3934 O   0  0  0  0  0  0  0  0  0  0  0  0
  146.6851  142.1260  156.4469 C   0  0  0  0  0  0  0  0  0  0  0  0
  147.0968  141.2824  155.3373 N   0  0  0  0  0  0  0  0  0  0  0  0
  146.3038  140.5590  154.4704 C   0  0  0  0  0  0  0  0  0  0  0  0
  147.1334  139.9423  153.5783 C   0  0  0  0  0  0  0  0  0  0  0  0
  148.4334  140.3520  153.9866 C   0  0  0  0  0  0  0  0  0  0  0  0
  148.4085  141.1530  155.0397 N   0  0  0  0  0  0  0  0  0  0  0  0
  151.0346  142.5411  158.2057 C   0  0  0  0  0  0  0  0  0  0  0  0
  151.2582  142.8061  156.7034 C   0  0  0  0  0  0  0  0  0  0  0  0
  151.5159  141.1068  158.4501 C   0  0  0  0  0  0  0  0  0  0  0  0
  152.2331  143.3314  162.4502 H   0  0  0  0  0  0  0  0  0  0  0  0
  151.7044  144.7890  161.6196 H   0  0  0  0  0  0  0  0  0  0  0  0
  153.3266  144.1337  161.3390 H   0  0  0  0  0  0  0  0  0  0  0  0
  152.7078  144.8452  157.7541 H   0  0  0  0  0  0  0  0  0  0  0  0
  153.7108  143.8632  158.8111 H   0  0  0  0  0  0  0  0  0  0  0  0
  152.9407  145.3321  159.4089 H   0  0  0  0  0  0  0  0  0  0  0  0
  149.7883  144.6971  160.0400 H   0  0  0  0  0  0  0  0  0  0  0  0
  150.0788  144.9961  158.2923 H   0  0  0  0  0  0  0  0  0  0  0  0
  149.3855  142.3256  159.6759 H   0  0  0  0  0  0  0  0  0  0  0  0
  148.5805  143.6896  157.1217 H   0  0  0  0  0  0  0  0  0  0  0  0
  145.6667  141.8644  156.7388 H   0  0  0  0  0  0  0  0  0  0  0  0
  146.6700  143.1657  156.1179 H   0  0  0  0  0  0  0  0  0  0  0  0
  145.2272  140.5484  154.5562 H   0  0  0  0  0  0  0  0  0  0  0  0
  146.8541  139.2973  152.7584 H   0  0  0  0  0  0  0  0  0  0  0  0
  149.3877  140.0932  153.5523 H   0  0  0  0  0  0  0  0  0  0  0  0
  150.7061  142.1001  156.0819 H   0  0  0  0  0  0  0  0  0  0  0  0
  152.3108  142.7133  156.4344 H   0  0  0  0  0  0  0  0  0  0  0  0
  150.9377  143.8054  156.4080 H   0  0  0  0  0  0  0  0  0  0  0  0
  151.0393  140.4019  157.7679 H   0  0  0  0  0  0  0  0  0  0  0  0
  151.2866  140.7657  159.4598 H   0  0  0  0  0  0  0  0  0  0  0  0
  152.5944  141.0199  158.3150 H   0  0  0  0  0  0  0  0  0  0  0  0
  1  2  1  0  0  0  0
  1 19  1  0  0  0  0
  1 20  1  0  0  0  0
  1 21  1  0  0  0  0
  2  3  1  0  0  0  0
  3 16  1  0  0  0  0
  3  4  1  0  0  0  0
  3  5  1  0  0  0  0
  4 22  1  0  0  0  0
  4 23  1  0  0  0  0
  4 24  1  0  0  0  0
  5  6  1  0  0  0  0
  5 25  1  0  0  0  0
  5 26  1  0  0  0  0
  6  7  1  0  0  0  0
  6 16  1  0  0  0  0
  6 27  1  0  0  0  0
  7  8  1  0  0  0  0
  7 28  1  0  0  0  0
  8  9  2  0  0  0  0
  8 10  1  0  0  0  0
 10 11  1  0  0  0  0
 10 29  1  0  0  0  0
 10 30  1  0  0  0  0
 11 15  1  0  0  0  0
 11 12  1  0  0  0  0
 12 13  2  0  0  0  0
 12 31  1  0  0  0  0
 13 14  1  0  0  0  0
 13 32  1  0  0  0  0
 14 15  2  0  0  0  0
 14 33  1  0  0  0  0
 16 17  1  0  0  0  0
 16 18  1  0  0  0  0
 17 34  1  0  0  0  0
 17 35  1  0  0  0  0
 17 36  1  0  0  0  0
 18 37  1  0  0  0  0
 18 38  1  0  0  0  0
 18 39  1  0  0  0  0
M  END
> <s_m_source_file>
AV-unprocessed.smi

> <i_m_source_file_index>
3259

> <i_lp_mmshare_version>
43012

> <i_f3d_flags>
0

> <s_epik_input>
W0NIM11PW0NAQF0xKFtDSDNdKVtDSDJdW0NASF0oQzEoW0NIM10pW0NIM10pW05IXUMoPU8pW0NIMl1uMltjSF1bY0hdW2NIXW4y

> <s_epik_cmdline>
J2VwaWtfcHl0aG9uJywgJy1waCcsICc3LjAnLCAnLXRuJywgJzgnLCAnLW1hJywgJzIwMCcsICctbWV0YWxfYmluZGluZycsICctaW1hZScsICc8aW5maWxlLm1hZT4nLCAnLW9tYWUnLCAnPG91dGZpbGUubWFlPic=

> <r_lp_tautomer_probability>
1

> <r_epik_Ionization_Penalty>
1.78399e-05

> <r_epik_Ionization_Penalty_Charging>
0

> <r_epik_Ionization_Penalty_Neutral>
1.78399e-05

> <r_epik_State_Penalty>
-0

> <r_epik_Charging_Adjusted_Penalty>
0

> <i_epik_Tot_Q>
0

> <i_epik_Tot_abs_Q>
0

> <r_epik_Metal_State_Penalty>
-0

> <b_epik_Metal_Only>
0

> <s_lp_Force_Field>
OPLS_2005

> <r_lp_Energy>
22.327

> <b_lp_Chiralities_Consistent>
1

> <s_lp_Variant>
AV-unprocessed.smi:3259-2

> <Gold.Version>
5.8.1

> <Gold.Id.Protein>
6NUR|6NUR_protein|mol2

> <Gold.PLP.Fitness>
36.2996

> <Gold.PLP.PLP>
-30.5425

> <Gold.PLP.part.hbond>
-3.1998

> <Gold.PLP.part.metal>
0.0000

> <Gold.PLP.part.buried>
-2.2592

> <Gold.PLP.part.nonpolar>
-25.2689

> <Gold.PLP.part.repulsive>
0.2523

> <Gold.PLP.ligand.clash>
0.0000

> <Gold.PLP.ligand.torsion>
1.0317

> <Gold.PLP.Chemscore.Hbond>
0.8000

> <Gold.PLP.Chemscore.CHOScore>
1.6785

> <Gold.PLP.Chemscore.Metal>
0.0000

> <Gold.Chemscore.Hbonds>
donor molecule, donor type, donor heavy atom, donor atom, acceptor molecule, acceptor atom, score
      L1  H     7    28       P1  8028  0.70
      P1  H  6934  6946       L1     9  0.01
      L1  C    12    31       P1 10175  0.74
      L1  C    14    33       P1  7957  0.79

> <Gold.PLP.Chemscore.Internal.Correction>
0.3850

> <Gold.Rescore>
     Score         DG    S(hbond)    S(metal)    S(lipo)     H(rot)  DE(clash)    DE(int)     intcor
     12.80     -15.21       0.84        0.00      94.00       1.60       1.46       0.95       ----

> <Gold.Chemscore.Fitness>
12.7972

> <Gold.Chemscore.DG>
-15.2107

> <Gold.Chemscore.ZeroCoef>
-5.4800

> <Gold.Chemscore.Hbond>
0.8438

> <Gold.Chemscore.Metal>
0.0000

> <Gold.Chemscore.Lipo>
94.0044

> <Gold.Chemscore.Internal_Hbond>
0.0000

> <Gold.Chemscore.DEClash>
1.4602

> <Gold.Chemscore.DEInternal>
0.9532

> <Gold.Chemscore.Rot>
1.5962

> <Gold.Chemscore.Internal.Correction>
   9.000000E+99

> <Gold.Chemscore.Hbonds>
donor molecule, donor type, donor heavy atom, donor atom, acceptor molecule, acceptor atom, score
      L1  H     7    28       P1  8028  0.07
      P1  H  6934  6946       L1     9  0.02

> <Gold.Chemscore.Hbond.Weighted>
-2.8184

> <Gold.Chemscore.Metal.Weighted>
-0.0000

> <Gold.Chemscore.Lipo.Weighted>
-10.9985

> <Gold.Chemscore.Internal_Hbond.Weighted>
0.0000

> <Gold.Chemscore.DEClash.Weighted>
1.4602

> <Gold.Chemscore.DEInternal.Weighted>
0.9532

> <Gold.Chemscore.Rot.Weighted>
4.0862

> <Gold.Chemscore.Internal.Correction.Weighted>
   9.000000E+99

> <Gold.Protein.RotatedTorsions>
[ 6907 6896 6895 6894 ] final  112.44 input  -60.11 | X-H torsion
[ 7974 7965 7964 7962 ] final  -11.98 input  175.53 | X-H torsion
[ 8008 7997 7996 7995 ] final  -65.94 input   59.86 | X-H torsion
[ 10167 10162 10161 10158 ] final -171.17 input  -65.29 | X-H torsion
[ 10718 10713 10712 10709 ] final  135.23 input   66.30 | X-H torsion
[ 10763 10752 10751 10750 ] final  -43.80 input  -60.55 | X-H torsion
[ 11005 11000 10999 10996 ] final   26.79 input  -57.11 | X-H torsion

> <Gold.Protein.ActiveResidues>
 VAL166  LYS551  ARG553  GLY616  TRP617  ASP618  TYR619  PRO620  LYS621  CYS622 
 ASP623  PHE694  ASN695  SER759  ASP760  ASP761  ALA762  ILE779  LEU786  VAL792 
 PHE793  MET794  SER795  GLU796  ALA797  LYS798  CYS799  TRP800  GLU811  SER814 

> <Gold.Protein.RotatedAtoms>
  152.4916  133.8516  159.7203 H   0  0  0  0  0  0  0  0  0  0  0  0  # atno 6907 bound_to 6896
  150.9051  133.7059  159.2875 H   0  0  0  0  0  0  0  0  0  0  0  0  # atno 6908 bound_to 6896
  151.4487  135.1032  159.9744 H   0  0  0  0  0  0  0  0  0  0  0  0  # atno 6909 bound_to 6896
  146.2168  140.2991  142.8374 H   0  0  0  0  0  0  0  0  0  0  0  0  # atno 7974 bound_to 7965
  154.4703  140.0923  156.7127 H   0  0  0  0  0  0  0  0  0  0  0  0  # atno 8008 bound_to 7997
  155.4743  140.3465  155.4312 H   0  0  0  0  0  0  0  0  0  0  0  0  # atno 8009 bound_to 7997
  156.1027  140.1426  156.9434 H   0  0  0  0  0  0  0  0  0  0  0  0  # atno 8010 bound_to 7997
  139.5818  144.1406  152.1525 H   0  0  0  0  0  0  0  0  0  0  0  0  # atno 10167 bound_to 10162
  157.4592  131.1072  150.9940 H   0  0  0  0  0  0  0  0  0  0  0  0  # atno 10718 bound_to 10713
  154.0016  135.6693  153.4759 H   0  0  0  0  0  0  0  0  0  0  0  0  # atno 10763 bound_to 10752
  153.0660  135.5001  154.8197 H   0  0  0  0  0  0  0  0  0  0  0  0  # atno 10764 bound_to 10752
  154.7049  135.3086  154.9248 H   0  0  0  0  0  0  0  0  0  0  0  0  # atno 10765 bound_to 10752
  140.3332  134.2414  155.7699 H   0  0  0  0  0  0  0  0  0  0  0  0  # atno 11005 bound_to 11000
  144.9070  140.7712  143.5831 LP  0  0  0  0  0  0  0  0  0  0  0  0  # atno 17320 bound_to 7965
  145.2919  139.1880  143.4735 LP  0  0  0  0  0  0  0  0  0  0  0  0  # atno 17321 bound_to 7965
  140.0961  144.5579  150.7021 LP  0  0  0  0  0  0  0  0  0  0  0  0  # atno 17342 bound_to 10162
  140.7095  143.2494  151.4624 LP  0  0  0  0  0  0  0  0  0  0  0  0  # atno 17343 bound_to 10162
  157.0743  130.5877  149.5408 LP  0  0  0  0  0  0  0  0  0  0  0  0  # atno 17370 bound_to 10713
  156.0021  130.5102  150.7700 LP  0  0  0  0  0  0  0  0  0  0  0  0  # atno 17371 bound_to 10713
  141.2058  133.7851  157.0213 LP  0  0  0  0  0  0  0  0  0  0  0  0  # atno 17394 bound_to 11000
  140.0843  134.9630  157.1674 LP  0  0  0  0  0  0  0  0  0  0  0  0  # atno 17395 bound_to 11000

$$$$
