AV-unprocessed.smi:1561|AV-procd|sdf|6284|dock3
  -GOLD-   22720 6483D 1   1.00000     0.00000
 Structure written by MMmdl.
 33 34  0  0  0  0  0  0  0  0  1 V2000
  149.5443  141.0163  156.3339 C   0  0  0  0  0  0  0  0  0  0  0  0
  151.0180  140.6709  156.0368 C   0  0  1  0  0  0  0  0  0  0  0  0
  151.8969  140.6963  157.2970 C   0  0  0  0  0  0  0  0  0  0  0  0
  152.6534  139.7591  157.5536 O   0  0  0  0  0  0  0  0  0  0  0  0
  151.7837  141.7834  158.0771 N   0  0  0  0  0  0  0  0  0  0  0  0
  152.5292  142.0265  159.3080 C   0  0  0  0  0  0  0  0  0  0  0  0
  151.9286  143.1846  160.1268 C   0  0  2  0  0  0  0  0  0  0  0  0
  152.0756  144.5406  159.4672 C   0  0  0  0  0  0  0  0  0  0  0  0
  151.8430  145.4933  160.6370 C   0  0  0  0  0  0  0  0  0  0  0  0
  152.2771  144.7979  161.8026 O   0  0  0  0  0  0  0  0  0  0  0  0
  152.6016  143.4509  161.4742 C   0  0  0  0  0  0  0  0  0  0  0  0
  151.1609  139.3934  155.3474 N   0  0  0  0  0  0  0  0  0  0  0  0
  152.3169  138.8212  154.8559 C   0  0  0  0  0  0  0  0  0  0  0  0
  151.9830  137.6070  154.3283 C   0  0  0  0  0  0  0  0  0  0  0  0
  150.5826  137.5127  154.5578 C   0  0  0  0  0  0  0  0  0  0  0  0
  150.0952  138.5767  155.1741 N   0  0  0  0  0  0  0  0  0  0  0  0
  149.4578  141.9989  156.7991 H   0  0  0  0  0  0  0  0  0  0  0  0
  149.0777  140.2929  157.0038 H   0  0  0  0  0  0  0  0  0  0  0  0
  148.9589  141.0389  155.4143 H   0  0  0  0  0  0  0  0  0  0  0  0
  151.3942  141.4414  155.3615 H   0  0  0  0  0  0  0  0  0  0  0  0
  151.1362  142.5031  157.7902 H   0  0  0  0  0  0  0  0  0  0  0  0
  152.5921  141.1186  159.9105 H   0  0  0  0  0  0  0  0  0  0  0  0
  153.5530  142.2748  159.0273 H   0  0  0  0  0  0  0  0  0  0  0  0
  150.8667  142.9971  160.2961 H   0  0  0  0  0  0  0  0  0  0  0  0
  153.0880  144.6674  159.0801 H   0  0  0  0  0  0  0  0  0  0  0  0
  151.3750  144.6981  158.6465 H   0  0  0  0  0  0  0  0  0  0  0  0
  152.3754  146.4368  160.5147 H   0  0  0  0  0  0  0  0  0  0  0  0
  150.7805  145.7154  160.7426 H   0  0  0  0  0  0  0  0  0  0  0  0
  152.2727  142.7621  162.2525 H   0  0  0  0  0  0  0  0  0  0  0  0
  153.6862  143.3703  161.3864 H   0  0  0  0  0  0  0  0  0  0  0  0
  153.2720  139.3212  154.9219 H   0  0  0  0  0  0  0  0  0  0  0  0
  152.6398  136.8922  153.8555 H   0  0  0  0  0  0  0  0  0  0  0  0
  149.9112  136.7066  154.3008 H   0  0  0  0  0  0  0  0  0  0  0  0
  1  2  1  0  0  0  0
  1 17  1  0  0  0  0
  1 18  1  0  0  0  0
  1 19  1  0  0  0  0
  2  3  1  0  0  0  0
  2 12  1  0  0  0  0
  2 20  1  0  0  0  0
  3  4  2  0  0  0  0
  3  5  1  0  0  0  0
  5  6  1  0  0  0  0
  5 21  1  0  0  0  0
  6  7  1  0  0  0  0
  6 22  1  0  0  0  0
  6 23  1  0  0  0  0
  7 11  1  0  0  0  0
  7  8  1  0  0  0  0
  7 24  1  0  0  0  0
  8  9  1  0  0  0  0
  8 25  1  0  0  0  0
  8 26  1  0  0  0  0
  9 10  1  0  0  0  0
  9 27  1  0  0  0  0
  9 28  1  0  0  0  0
 10 11  1  0  0  0  0
 11 29  1  0  0  0  0
 11 30  1  0  0  0  0
 12 16  1  0  0  0  0
 12 13  1  0  0  0  0
 13 14  2  0  0  0  0
 13 31  1  0  0  0  0
 14 15  1  0  0  0  0
 14 32  1  0  0  0  0
 15 16  2  0  0  0  0
 15 33  1  0  0  0  0
M  END
> <s_m_source_file>
AV-unprocessed.smi

> <i_m_source_file_index>
1561

> <i_lp_mmshare_version>
43012

> <i_f3d_flags>
0

> <s_epik_input>
bjFbY0hdW2NIXVtjSF1uMVtDQEhdKFtDSDNdKUMoPU8pW05IXVtDSDJdW0NAQEhdMltDSDJdW0NIMl1PW0NIMl0y

> <s_epik_cmdline>
J2VwaWtfcHl0aG9uJywgJy1waCcsICc3LjAnLCAnLXRuJywgJzgnLCAnLW1hJywgJzIwMCcsICctbWV0YWxfYmluZGluZycsICctaW1hZScsICc8aW5maWxlLm1hZT4nLCAnLW9tYWUnLCAnPG91dGZpbGUubWFlPic=

> <r_lp_tautomer_probability>
1

> <r_epik_Ionization_Penalty>
3.82077e-05

> <r_epik_Ionization_Penalty_Charging>
0

> <r_epik_Ionization_Penalty_Neutral>
3.82077e-05

> <r_epik_State_Penalty>
-0

> <r_epik_Charging_Adjusted_Penalty>
0

> <i_epik_Tot_Q>
0

> <i_epik_Tot_abs_Q>
0

> <r_epik_Metal_State_Penalty>
-0

> <b_epik_Metal_Only>
0

> <s_lp_Force_Field>
OPLS_2005

> <r_lp_Energy>
22.8323

> <b_lp_Chiralities_Consistent>
1

> <s_lp_Variant>
AV-unprocessed.smi:1561-2

> <Gold.Version>
5.8.1

> <Gold.Id.Protein>
6NUR|6NUR_protein|mol2

> <Gold.PLP.Fitness>
39.0783

> <Gold.PLP.PLP>
-33.5074

> <Gold.PLP.part.hbond>
-1.0000

> <Gold.PLP.part.metal>
0.0000

> <Gold.PLP.part.buried>
0.6622

> <Gold.PLP.part.nonpolar>
-33.5534

> <Gold.PLP.part.repulsive>
2.5191

> <Gold.PLP.ligand.clash>
0.0000

> <Gold.PLP.ligand.torsion>
0.2761

> <Gold.PLP.Chemscore.Hbond>
1.0000

> <Gold.PLP.Chemscore.CHOScore>
1.0017

> <Gold.PLP.Chemscore.Metal>
0.0000

> <Gold.Chemscore.Hbonds>
donor molecule, donor type, donor heavy atom, donor atom, acceptor molecule, acceptor atom, score
      P1  H  7997  8008       L1     4  1.00
      L1  C    15    33       P1  7948  0.67

> <Gold.PLP.Chemscore.Internal.Correction>
0.1180

> <Gold.Rescore>
     Score         DG    S(hbond)    S(metal)    S(lipo)     H(rot)  DE(clash)    DE(int)     intcor
     12.23     -15.53       0.88        0.00      96.00       1.61       1.55       1.75       ----

> <Gold.Chemscore.Fitness>
12.2287

> <Gold.Chemscore.DG>
-15.5332

> <Gold.Chemscore.ZeroCoef>
-5.4800

> <Gold.Chemscore.Hbond>
0.8807

> <Gold.Chemscore.Metal>
0.0000

> <Gold.Chemscore.Lipo>
95.9981

> <Gold.Chemscore.Internal_Hbond>
0.0000

> <Gold.Chemscore.DEClash>
1.5512

> <Gold.Chemscore.DEInternal>
1.7533

> <Gold.Chemscore.Rot>
1.6094

> <Gold.Chemscore.Internal.Correction>
   9.000000E+99

> <Gold.Chemscore.Hbonds>
donor molecule, donor type, donor heavy atom, donor atom, acceptor molecule, acceptor atom, score
      P1  H  7997  8008       L1     4  0.63

> <Gold.Chemscore.Hbond.Weighted>
-2.9415

> <Gold.Chemscore.Metal.Weighted>
-0.0000

> <Gold.Chemscore.Lipo.Weighted>
-11.2318

> <Gold.Chemscore.Internal_Hbond.Weighted>
0.0000

> <Gold.Chemscore.DEClash.Weighted>
1.5512

> <Gold.Chemscore.DEInternal.Weighted>
1.7533

> <Gold.Chemscore.Rot.Weighted>
4.1201

> <Gold.Chemscore.Internal.Correction.Weighted>
   9.000000E+99

> <Gold.Protein.RotatedTorsions>
[ 6907 6896 6895 6894 ] final -147.70 input  -60.11 | X-H torsion
[ 7974 7965 7964 7962 ] final  -65.09 input  175.53 | X-H torsion
[ 8008 7997 7996 7995 ] final  -58.76 input   59.86 | X-H torsion
[ 10167 10162 10161 10158 ] final   43.65 input  -65.29 | X-H torsion
[ 10718 10713 10712 10709 ] final   14.38 input   66.30 | X-H torsion
[ 10763 10752 10751 10750 ] final  113.12 input  -60.55 | X-H torsion
[ 11005 11000 10999 10996 ] final   75.60 input  -57.11 | X-H torsion

> <Gold.Protein.ActiveResidues>
 VAL166  LYS551  ARG553  GLY616  TRP617  ASP618  TYR619  PRO620  LYS621  CYS622 
 ASP623  PHE694  ASN695  SER759  ASP760  ASP761  ALA762  ILE779  LEU786  VAL792 
 PHE793  MET794  SER795  GLU796  ALA797  LYS798  CYS799  TRP800  GLU811  SER814 

> <Gold.Protein.RotatedAtoms>
  151.1593  133.4855  159.2594 H   0  0  0  0  0  0  0  0  0  0  0  0  # atno 6907 bound_to 6896
  151.1471  135.0208  159.8661 H   0  0  0  0  0  0  0  0  0  0  0  0  # atno 6908 bound_to 6896
  152.5463  134.1481  159.8560 H   0  0  0  0  0  0  0  0  0  0  0  0  # atno 6909 bound_to 6896
  145.7586  140.8873  143.0442 H   0  0  0  0  0  0  0  0  0  0  0  0  # atno 7974 bound_to 7965
  154.4322  140.1077  156.6008 H   0  0  0  0  0  0  0  0  0  0  0  0  # atno 8008 bound_to 7997
  155.5913  140.3492  155.4548 H   0  0  0  0  0  0  0  0  0  0  0  0  # atno 8009 bound_to 7997
  156.0244  140.1246  157.0313 H   0  0  0  0  0  0  0  0  0  0  0  0  # atno 8010 bound_to 7997
  140.3422  144.2456  150.6154 H   0  0  0  0  0  0  0  0  0  0  0  0  # atno 10167 bound_to 10162
  157.0383  130.6221  149.5747 H   0  0  0  0  0  0  0  0  0  0  0  0  # atno 10718 bound_to 10713
  153.4878  135.3665  155.2476 H   0  0  0  0  0  0  0  0  0  0  0  0  # atno 10763 bound_to 10752
  154.8753  135.3970  154.3624 H   0  0  0  0  0  0  0  0  0  0  0  0  # atno 10764 bound_to 10752
  153.4239  135.7081  153.6341 H   0  0  0  0  0  0  0  0  0  0  0  0  # atno 10765 bound_to 10752
  139.9336  134.7531  156.1291 H   0  0  0  0  0  0  0  0  0  0  0  0  # atno 11005 bound_to 11000
  144.6835  139.9691  143.7482 LP  0  0  0  0  0  0  0  0  0  0  0  0  # atno 17320 bound_to 7965
  146.0286  139.3315  143.0769 LP  0  0  0  0  0  0  0  0  0  0  0  0  # atno 17321 bound_to 7965
  140.5298  143.2246  151.8257 LP  0  0  0  0  0  0  0  0  0  0  0  0  # atno 17342 bound_to 10162
  139.4839  144.4734  151.9397 LP  0  0  0  0  0  0  0  0  0  0  0  0  # atno 17343 bound_to 10162
  156.0046  130.5131  150.7785 LP  0  0  0  0  0  0  0  0  0  0  0  0  # atno 17370 bound_to 10713
  157.5124  131.0926  151.0182 LP  0  0  0  0  0  0  0  0  0  0  0  0  # atno 17371 bound_to 10713
  141.0939  133.6703  156.2601 LP  0  0  0  0  0  0  0  0  0  0  0  0  # atno 17394 bound_to 11000
  140.6135  134.5435  157.5537 LP  0  0  0  0  0  0  0  0  0  0  0  0  # atno 17395 bound_to 11000

$$$$
