AV-unprocessed.smi:19|AV-procd|sdf|110|dock6
  -GOLD-   2262015273D 1   1.00000     0.00000
 Structure written by MMmdl.
 57 60  0  0  0  0  0  0  0  0  1 V2000
  151.5149  145.7105  159.7523 C   0  0  0  0  0  0  0  0  0  0  0  0
  151.6272  144.3339  159.4371 O   0  0  0  0  0  0  0  0  0  0  0  0
  152.8549  143.7753  159.8751 C   0  0  0  0  0  0  0  0  0  0  0  0
  152.7273  142.2472  159.9135 C   0  0  1  0  0  0  0  0  0  0  0  0
  152.3616  141.6698  158.5329 C   0  0  0  0  0  0  0  0  0  0  0  0
  152.3577  140.2112  158.5799 N   0  0  0  0  0  0  0  0  0  0  0  0
  151.7823  139.6059  157.5094 C   0  0  0  0  0  0  0  0  0  0  0  0
  152.3835  139.6659  156.2906 N   0  0  0  0  0  0  0  0  0  0  0  0
  151.8178  139.0855  155.2285 C   0  0  0  0  0  0  0  0  0  0  0  0
  150.6757  138.3997  155.1628 N   0  0  0  0  0  0  0  0  0  0  0  0
  150.0730  138.3215  156.3833 C   0  0  0  0  0  0  0  0  0  0  0  0
  150.5520  138.8942  157.5962 C   0  0  0  0  0  0  0  0  0  0  0  0
  149.6725  138.6052  158.6329 N   0  0  0  0  0  0  0  0  0  0  0  0
  148.7231  137.9152  158.0634 C   0  0  0  0  0  0  0  0  0  0  0  0
  148.8906  137.6815  156.7167 N   0  0  0  0  0  0  0  0  0  0  0  0
  147.9875  136.9444  155.8421 C   0  0  0  0  0  0  0  0  0  0  0  0
  146.9256  137.8155  155.1062 C   0  0  0  0  0  0  0  0  0  0  0  0
  145.8129  136.9194  154.4914 C   0  0  0  0  0  0  0  0  0  0  0  0
  146.3390  135.9198  153.6421 O   0  0  0  0  0  0  0  0  0  0  0  0
  146.2884  138.8241  156.0965 C   0  0  0  0  0  0  0  0  0  0  0  0
  145.4779  139.9320  155.3973 C   0  0  0  0  0  0  0  0  0  0  0  0
  146.2875  140.6069  154.4440 O   0  0  0  0  0  0  0  0  0  0  0  0
  146.7556  139.7479  153.4130 C   0  0  0  0  0  0  0  0  0  0  0  0
  147.6470  138.6487  154.0167 C   0  0  0  0  0  0  0  0  0  0  0  0
  153.6056  139.6539  159.0951 C   0  0  0  0  0  0  0  0  0  0  0  0
  153.9480  140.2868  160.4559 C   0  0  1  0  0  0  0  0  0  0  0  0
  155.3104  139.8220  160.9810 C   0  0  0  0  0  0  0  0  0  0  0  0
  153.9842  141.7038  160.3111 O   0  0  0  0  0  0  0  0  0  0  0  0
  150.5594  146.0918  159.3924 H   0  0  0  0  0  0  0  0  0  0  0  0
  152.3088  146.2901  159.2794 H   0  0  0  0  0  0  0  0  0  0  0  0
  151.5576  145.8725  160.8301 H   0  0  0  0  0  0  0  0  0  0  0  0
  153.6426  144.0625  159.1766 H   0  0  0  0  0  0  0  0  0  0  0  0
  153.1312  144.1607  160.8578 H   0  0  0  0  0  0  0  0  0  0  0  0
  151.9575  141.9721  160.6368 H   0  0  0  0  0  0  0  0  0  0  0  0
  151.3934  142.0605  158.2224 H   0  0  0  0  0  0  0  0  0  0  0  0
  153.0873  141.9955  157.7863 H   0  0  0  0  0  0  0  0  0  0  0  0
  152.3569  139.1860  154.2980 H   0  0  0  0  0  0  0  0  0  0  0  0
  147.8716  137.5479  158.6175 H   0  0  0  0  0  0  0  0  0  0  0  0
  148.6026  136.4131  155.1145 H   0  0  0  0  0  0  0  0  0  0  0  0
  147.5000  136.1673  156.4321 H   0  0  0  0  0  0  0  0  0  0  0  0
  145.2273  136.4362  155.2736 H   0  0  0  0  0  0  0  0  0  0  0  0
  145.1042  137.5015  153.9052 H   0  0  0  0  0  0  0  0  0  0  0  0
  147.0745  136.2814  153.1718 H   0  0  0  0  0  0  0  0  0  0  0  0
  145.6460  138.3088  156.8107 H   0  0  0  0  0  0  0  0  0  0  0  0
  147.0748  139.3013  156.6829 H   0  0  0  0  0  0  0  0  0  0  0  0
  144.5832  139.5350  154.9175 H   0  0  0  0  0  0  0  0  0  0  0  0
  145.1351  140.6575  156.1351 H   0  0  0  0  0  0  0  0  0  0  0  0
  145.9168  139.3265  152.8580 H   0  0  0  0  0  0  0  0  0  0  0  0
  147.3314  140.3415  152.7029 H   0  0  0  0  0  0  0  0  0  0  0  0
  148.5231  139.1317  154.4515 H   0  0  0  0  0  0  0  0  0  0  0  0
  148.0293  138.0051  153.2242 H   0  0  0  0  0  0  0  0  0  0  0  0
  153.5145  138.5723  159.2051 H   0  0  0  0  0  0  0  0  0  0  0  0
  154.4089  139.8439  158.3817 H   0  0  0  0  0  0  0  0  0  0  0  0
  153.1835  140.0211  161.1883 H   0  0  0  0  0  0  0  0  0  0  0  0
  155.3294  138.7407  161.1189 H   0  0  0  0  0  0  0  0  0  0  0  0
  155.5353  140.2843  161.9422 H   0  0  0  0  0  0  0  0  0  0  0  0
  156.1107  140.0855  160.2889 H   0  0  0  0  0  0  0  0  0  0  0  0
  1  2  1  0  0  0  0
  1 29  1  0  0  0  0
  1 30  1  0  0  0  0
  1 31  1  0  0  0  0
  2  3  1  0  0  0  0
  3  4  1  0  0  0  0
  3 32  1  0  0  0  0
  3 33  1  0  0  0  0
  4 28  1  0  0  0  0
  4  5  1  0  0  0  0
  4 34  1  0  0  0  0
  5  6  1  0  0  0  0
  5 35  1  0  0  0  0
  5 36  1  0  0  0  0
  6  7  1  0  0  0  0
  6 25  1  0  0  0  0
  7 12  1  0  0  0  0
  7  8  2  0  0  0  0
  8  9  1  0  0  0  0
  9 10  2  0  0  0  0
  9 37  1  0  0  0  0
 10 11  1  0  0  0  0
 11 15  1  0  0  0  0
 11 12  2  0  0  0  0
 12 13  1  0  0  0  0
 13 14  2  0  0  0  0
 14 15  1  0  0  0  0
 14 38  1  0  0  0  0
 15 16  1  0  0  0  0
 16 17  1  0  0  0  0
 16 39  1  0  0  0  0
 16 40  1  0  0  0  0
 17 24  1  0  0  0  0
 17 18  1  0  0  0  0
 17 20  1  0  0  0  0
 18 19  1  0  0  0  0
 18 41  1  0  0  0  0
 18 42  1  0  0  0  0
 19 43  1  0  0  0  0
 20 21  1  0  0  0  0
 20 44  1  0  0  0  0
 20 45  1  0  0  0  0
 21 22  1  0  0  0  0
 21 46  1  0  0  0  0
 21 47  1  0  0  0  0
 22 23  1  0  0  0  0
 23 24  1  0  0  0  0
 23 48  1  0  0  0  0
 23 49  1  0  0  0  0
 24 50  1  0  0  0  0
 24 51  1  0  0  0  0
 25 26  1  0  0  0  0
 25 52  1  0  0  0  0
 25 53  1  0  0  0  0
 26 27  1  0  0  0  0
 26 28  1  0  0  0  0
 26 54  1  0  0  0  0
 27 55  1  0  0  0  0
 27 56  1  0  0  0  0
 27 57  1  0  0  0  0
M  END
> <s_m_source_file>
AV-unprocessed.smi

> <i_m_source_file_index>
19

> <i_lp_mmshare_version>
43012

> <i_f3d_flags>
0

> <s_epik_input>
W0NIM11PW0NIMl1bQ0BASF0xW0NIMl1OKFtDSDJdW0NASF0oTzEpW0NIM10pYyhuW2NIXW4yKWMoYzIzKW5bY0hdbjNbQ0gyXUM0KFtDSDJdW09IXSlbQ0gyXVtDSDJdT1tDSDJdW0NIMl00

> <s_epik_cmdline>
J2VwaWtfcHl0aG9uJywgJy1waCcsICc3LjAnLCAnLXRuJywgJzgnLCAnLW1hJywgJzIwMCcsICctbWV0YWxfYmluZGluZycsICctaW1hZScsICc8aW5maWxlLm1hZT4nLCAnLW9tYWUnLCAnPG91dGZpbGUubWFlPic=

> <r_lp_tautomer_probability>
1

> <r_epik_Ionization_Penalty>
6.20357e-05

> <r_epik_Ionization_Penalty_Charging>
0

> <r_epik_Ionization_Penalty_Neutral>
6.20357e-05

> <r_epik_State_Penalty>
-0

> <r_epik_Charging_Adjusted_Penalty>
0

> <i_epik_Tot_Q>
0

> <i_epik_Tot_abs_Q>
0

> <r_epik_Metal_State_Penalty>
-0

> <b_epik_Metal_Only>
0

> <s_lp_Force_Field>
OPLS_2005

> <r_lp_Energy>
35.6446

> <b_lp_Chiralities_Consistent>
1

> <s_lp_Variant>
AV-unprocessed.smi:19-2

> <Gold.Version>
5.8.1

> <Gold.Id.Protein>
6NUR|6NUR_protein|mol2

> <Gold.PLP.Fitness>
40.7190

> <Gold.PLP.PLP>
-35.7711

> <Gold.PLP.part.hbond>
-2.0000

> <Gold.PLP.part.metal>
0.0000

> <Gold.PLP.part.buried>
-7.1713

> <Gold.PLP.part.nonpolar>
-27.2938

> <Gold.PLP.part.repulsive>
0.2678

> <Gold.PLP.ligand.clash>
0.0000

> <Gold.PLP.ligand.torsion>
0.7387

> <Gold.PLP.Chemscore.Hbond>
2.0000

> <Gold.PLP.Chemscore.CHOScore>
0.0000

> <Gold.PLP.Chemscore.Metal>
0.0000

> <Gold.Chemscore.Hbonds>
donor molecule, donor type, donor heavy atom, donor atom, acceptor molecule, acceptor atom, score
      L1  H    19    43       P1  7948  0.36
      P1  H  7997  8008       L1     8  1.00

> <Gold.PLP.Chemscore.Internal.Correction>
0.4252

> <Gold.Rescore>
     Score         DG    S(hbond)    S(metal)    S(lipo)     H(rot)  DE(clash)    DE(int)     intcor
     13.30     -14.12       1.91        0.00      82.21       2.87       0.04       0.77       ----

> <Gold.Chemscore.Fitness>
13.3049

> <Gold.Chemscore.DG>
-14.1202

> <Gold.Chemscore.ZeroCoef>
-5.4800

> <Gold.Chemscore.Hbond>
1.9092

> <Gold.Chemscore.Metal>
0.0000

> <Gold.Chemscore.Lipo>
82.2061

> <Gold.Chemscore.Internal_Hbond>
0.0000

> <Gold.Chemscore.DEClash>
0.0427

> <Gold.Chemscore.DEInternal>
0.7726

> <Gold.Chemscore.Rot>
2.8729

> <Gold.Chemscore.Internal.Correction>
   9.000000E+99

> <Gold.Chemscore.Hbonds>
donor molecule, donor type, donor heavy atom, donor atom, acceptor molecule, acceptor atom, score
      L1  H    19    43       P1  7948  0.35
      P1  H  7997  8008       L1     8  0.78

> <Gold.Chemscore.Hbond.Weighted>
-6.3767

> <Gold.Chemscore.Metal.Weighted>
-0.0000

> <Gold.Chemscore.Lipo.Weighted>
-9.6181

> <Gold.Chemscore.Internal_Hbond.Weighted>
0.0000

> <Gold.Chemscore.DEClash.Weighted>
0.0427

> <Gold.Chemscore.DEInternal.Weighted>
0.7726

> <Gold.Chemscore.Rot.Weighted>
7.3546

> <Gold.Chemscore.Internal.Correction.Weighted>
   9.000000E+99

> <Gold.Protein.RotatedTorsions>
[ 6907 6896 6895 6894 ] final   30.66 input  -60.11 | X-H torsion
[ 7974 7965 7964 7962 ] final -173.62 input  175.53 | X-H torsion
[ 8008 7997 7996 7995 ] final  -47.90 input   59.86 | X-H torsion
[ 10167 10162 10161 10158 ] final -132.49 input  -65.29 | X-H torsion
[ 10718 10713 10712 10709 ] final  108.74 input   66.30 | X-H torsion
[ 10763 10752 10751 10750 ] final  -67.48 input  -60.55 | X-H torsion
[ 11005 11000 10999 10996 ] final  145.31 input  -57.11 | X-H torsion

> <Gold.Protein.ActiveResidues>
 VAL166  LYS551  ARG553  GLY616  TRP617  ASP618  TYR619  PRO620  LYS621  CYS622 
 ASP623  PHE694  ASN695  SER759  ASP760  ASP761  ALA762  ILE779  LEU786  VAL792 
 PHE793  MET794  SER795  GLU796  ALA797  LYS798  CYS799  TRP800  GLU811  SER814 

> <Gold.Protein.RotatedAtoms>
  152.0491  134.9665  160.0574 H   0  0  0  0  0  0  0  0  0  0  0  0  # atno 6907 bound_to 6896
  152.1073  133.4277  159.4623 H   0  0  0  0  0  0  0  0  0  0  0  0  # atno 6908 bound_to 6896
  150.6842  134.2609  159.4592 H   0  0  0  0  0  0  0  0  0  0  0  0  # atno 6909 bound_to 6896
  144.7137  140.1595  143.6377 H   0  0  0  0  0  0  0  0  0  0  0  0  # atno 7974 bound_to 7965
  154.4022  140.1335  156.4251 H   0  0  0  0  0  0  0  0  0  0  0  0  # atno 8008 bound_to 7997
  155.7605  140.3486  155.5175 H   0  0  0  0  0  0  0  0  0  0  0  0  # atno 8009 bound_to 7997
  155.8863  140.0996  157.1440 H   0  0  0  0  0  0  0  0  0  0  0  0  # atno 8010 bound_to 7997
  139.9080  143.6528  152.2581 H   0  0  0  0  0  0  0  0  0  0  0  0  # atno 10167 bound_to 10162
  157.6573  131.0900  150.6350 H   0  0  0  0  0  0  0  0  0  0  0  0  # atno 10718 bound_to 10713
  154.3751  135.6086  153.5761 H   0  0  0  0  0  0  0  0  0  0  0  0  # atno 10763 bound_to 10752
  152.9789  135.5847  154.4476 H   0  0  0  0  0  0  0  0  0  0  0  0  # atno 10764 bound_to 10752
  154.4236  135.2846  155.1937 H   0  0  0  0  0  0  0  0  0  0  0  0  # atno 10765 bound_to 10752
  140.0702  134.9156  157.1332 H   0  0  0  0  0  0  0  0  0  0  0  0  # atno 11005 bound_to 11000
  145.9043  139.2449  143.1475 LP  0  0  0  0  0  0  0  0  0  0  0  0  # atno 17320 bound_to 7965
  145.9779  140.8706  143.0129 LP  0  0  0  0  0  0  0  0  0  0  0  0  # atno 17321 bound_to 7965
  139.6967  144.7640  151.1344 LP  0  0  0  0  0  0  0  0  0  0  0  0  # atno 17342 bound_to 10162
  140.7692  143.5514  150.9201 LP  0  0  0  0  0  0  0  0  0  0  0  0  # atno 17343 bound_to 10162
  156.6656  130.4524  149.5673 LP  0  0  0  0  0  0  0  0  0  0  0  0  # atno 17370 bound_to 10713
  156.2035  130.6635  151.1193 LP  0  0  0  0  0  0  0  0  0  0  0  0  # atno 17371 bound_to 10713
  140.3639  134.2464  155.7184 LP  0  0  0  0  0  0  0  0  0  0  0  0  # atno 17394 bound_to 11000
  141.2009  133.7977  157.0468 LP  0  0  0  0  0  0  0  0  0  0  0  0  # atno 17395 bound_to 11000

$$$$
