AV-unprocessed.smi:1050|AV-procd|sdf|4613|dock9
  -GOLD-   22720 3113D 1   1.00000     0.00000
 Structure written by MMmdl.
 48 49  0  0  0  0  0  0  0  0  1 V2000
  151.9224  131.1589  158.1638 C   0  0  0  0  0  0  0  0  0  0  0  0
  151.5199  132.5109  157.9731 O   0  0  0  0  0  0  0  0  0  0  0  0
  150.7422  132.8120  156.8740 C   0  0  0  0  0  0  0  0  0  0  0  0
  150.0918  131.7642  156.1979 C   0  0  0  0  0  0  0  0  0  0  0  0
  149.2982  132.0707  155.0780 C   0  0  0  0  0  0  0  0  0  0  0  0
  149.1854  133.4178  154.6566 C   0  0  0  0  0  0  0  0  0  0  0  0
  148.3702  133.8208  153.5600 N   0  0  0  0  0  0  0  0  0  0  0  0
  147.4357  133.1183  152.8942 C   0  0  0  0  0  0  0  0  0  0  0  0
  147.1148  131.9587  153.1537 O   0  0  0  0  0  0  0  0  0  0  0  0
  146.7576  133.8578  151.7281 C   0  0  1  0  0  0  0  0  0  0  0  0
  145.7037  132.9787  151.0381 C   0  0  0  0  0  0  0  0  0  0  0  0
  146.1013  135.0328  152.1970 O   0  0  0  0  0  0  0  0  0  0  0  0
  145.4943  135.8320  151.1896 C   0  0  0  0  0  0  0  0  0  0  0  0
  149.8680  134.4098  155.4093 C   0  0  0  0  0  0  0  0  0  0  0  0
  149.7906  135.7670  155.0403 N   0  0  0  0  0  0  0  0  0  0  0  0
  151.0610  136.3208  154.5716 C   0  0  0  0  0  0  0  0  0  0  0  0
  150.8538  137.7210  153.9620 C   0  0  0  0  0  0  0  0  0  0  0  0
  150.1601  138.5707  154.9391 N   0  0  0  0  0  0  0  0  0  0  0  0
  150.7460  139.6363  155.5349 C   0  0  0  0  0  0  0  0  0  0  0  0
  149.9743  140.4132  156.6037 C   0  0  0  0  0  0  0  0  0  0  0  0
  151.8845  140.0121  155.2552 O   0  0  0  0  0  0  0  0  0  0  0  0
  148.8338  138.0306  155.2677 C   0  0  0  0  0  0  0  0  0  0  0  0
  149.0109  136.6448  155.9151 C   0  0  0  0  0  0  0  0  0  0  0  0
  150.6279  134.1051  156.4880 N   0  0  0  0  0  0  0  0  0  0  0  0
  152.5264  131.0866  159.0681 H   0  0  0  0  0  0  0  0  0  0  0  0
  152.5298  130.8015  157.3309 H   0  0  0  0  0  0  0  0  0  0  0  0
  151.0617  130.5000  158.2876 H   0  0  0  0  0  0  0  0  0  0  0  0
  150.1933  130.7436  156.5364 H   0  0  0  0  0  0  0  0  0  0  0  0
  148.7783  131.2685  154.5785 H   0  0  0  0  0  0  0  0  0  0  0  0
  148.5817  134.7338  153.1836 H   0  0  0  0  0  0  0  0  0  0  0  0
  147.5062  134.1341  150.9827 H   0  0  0  0  0  0  0  0  0  0  0  0
  146.1417  132.0494  150.6718 H   0  0  0  0  0  0  0  0  0  0  0  0
  145.2696  133.4969  150.1829 H   0  0  0  0  0  0  0  0  0  0  0  0
  144.8875  132.7220  151.7144 H   0  0  0  0  0  0  0  0  0  0  0  0
  144.9596  136.6582  151.6577 H   0  0  0  0  0  0  0  0  0  0  0  0
  144.7734  135.2541  150.6100 H   0  0  0  0  0  0  0  0  0  0  0  0
  146.2282  136.2612  150.5072 H   0  0  0  0  0  0  0  0  0  0  0  0
  151.7527  136.3795  155.4134 H   0  0  0  0  0  0  0  0  0  0  0  0
  151.5193  135.6628  153.8329 H   0  0  0  0  0  0  0  0  0  0  0  0
  151.8138  138.1314  153.6470 H   0  0  0  0  0  0  0  0  0  0  0  0
  150.2490  137.6492  153.0570 H   0  0  0  0  0  0  0  0  0  0  0  0
  149.6866  139.7590  157.4275 H   0  0  0  0  0  0  0  0  0  0  0  0
  149.0778  140.8657  156.1790 H   0  0  0  0  0  0  0  0  0  0  0  0
  150.5889  141.2146  157.0157 H   0  0  0  0  0  0  0  0  0  0  0  0
  148.2475  138.6713  155.9243 H   0  0  0  0  0  0  0  0  0  0  0  0
  148.2502  137.9408  154.3503 H   0  0  0  0  0  0  0  0  0  0  0  0
  148.0354  136.1970  156.1085 H   0  0  0  0  0  0  0  0  0  0  0  0
  149.5158  136.7506  156.8764 H   0  0  0  0  0  0  0  0  0  0  0  0
  1  2  1  0  0  0  0
  1 25  1  0  0  0  0
  1 26  1  0  0  0  0
  1 27  1  0  0  0  0
  2  3  1  0  0  0  0
  3 24  1  0  0  0  0
  3  4  2  0  0  0  0
  4  5  1  0  0  0  0
  4 28  1  0  0  0  0
  5  6  2  0  0  0  0
  5 29  1  0  0  0  0
  6  7  1  0  0  0  0
  6 14  1  0  0  0  0
  7  8  1  0  0  0  0
  7 30  1  0  0  0  0
  8  9  2  0  0  0  0
  8 10  1  0  0  0  0
 10 11  1  0  0  0  0
 10 12  1  0  0  0  0
 10 31  1  0  0  0  0
 11 32  1  0  0  0  0
 11 33  1  0  0  0  0
 11 34  1  0  0  0  0
 12 13  1  0  0  0  0
 13 35  1  0  0  0  0
 13 36  1  0  0  0  0
 13 37  1  0  0  0  0
 14 15  1  0  0  0  0
 14 24  2  0  0  0  0
 15 23  1  0  0  0  0
 15 16  1  0  0  0  0
 16 17  1  0  0  0  0
 16 38  1  0  0  0  0
 16 39  1  0  0  0  0
 17 18  1  0  0  0  0
 17 40  1  0  0  0  0
 17 41  1  0  0  0  0
 18 19  1  0  0  0  0
 18 22  1  0  0  0  0
 19 20  1  0  0  0  0
 19 21  2  0  0  0  0
 20 42  1  0  0  0  0
 20 43  1  0  0  0  0
 20 44  1  0  0  0  0
 22 23  1  0  0  0  0
 22 45  1  0  0  0  0
 22 46  1  0  0  0  0
 23 47  1  0  0  0  0
 23 48  1  0  0  0  0
M  END
> <s_m_source_file>
AV-unprocessed.smi

> <i_m_source_file_index>
1050

> <i_lp_mmshare_version>
43012

> <i_f3d_flags>
0

> <s_epik_input>
W0NIM11PYzFbY0hdW2NIXWMoW05IXUMoPU8pW0NASF0oW0NIM10pT1tDSDNdKWMobjEpTjJbQ0gyXVtDSDJdTihDKD1PKVtDSDNdKVtDSDJdW0NIMl0y

> <s_epik_cmdline>
J2VwaWtfcHl0aG9uJywgJy1waCcsICc3LjAnLCAnLXRuJywgJzgnLCAnLW1hJywgJzIwMCcsICctbWV0YWxfYmluZGluZycsICctaW1hZScsICc8aW5maWxlLm1hZT4nLCAnLW9tYWUnLCAnPG91dGZpbGUubWFlPic=

> <r_lp_tautomer_probability>
1

> <r_epik_Ionization_Penalty>
0.000150604

> <r_epik_Ionization_Penalty_Charging>
0

> <r_epik_Ionization_Penalty_Neutral>
0.000150604

> <r_epik_State_Penalty>
-0

> <r_epik_Charging_Adjusted_Penalty>
0

> <i_epik_Tot_Q>
0

> <i_epik_Tot_abs_Q>
0

> <r_epik_Metal_State_Penalty>
-0

> <b_epik_Metal_Only>
0

> <s_lp_Force_Field>
OPLS_2005

> <r_lp_Energy>
41.0836

> <b_lp_Chiralities_Consistent>
1

> <s_lp_Variant>
AV-unprocessed.smi:1050-2

> <Gold.Version>
5.8.1

> <Gold.Id.Protein>
6NUR|6NUR_protein|mol2

> <Gold.PLP.Fitness>
41.3512

> <Gold.PLP.PLP>
-33.1494

> <Gold.PLP.part.hbond>
-3.0000

> <Gold.PLP.part.metal>
0.0000

> <Gold.PLP.part.buried>
-2.8611

> <Gold.PLP.part.nonpolar>
-28.6778

> <Gold.PLP.part.repulsive>
0.5021

> <Gold.PLP.ligand.clash>
0.0000

> <Gold.PLP.ligand.torsion>
0.4275

> <Gold.PLP.Chemscore.Hbond>
2.9040

> <Gold.PLP.Chemscore.CHOScore>
0.0000

> <Gold.PLP.Chemscore.Metal>
0.0000

> <Gold.Chemscore.Hbonds>
donor molecule, donor type, donor heavy atom, donor atom, acceptor molecule, acceptor atom, score
      L1  H     7    30       P1  7948  1.00
      P1  H  6896  6909       L1     2  0.93
      P1  H  7989  7998       L1    21  0.88

> <Gold.PLP.Chemscore.Internal.Correction>
0.3449

> <Gold.Rescore>
     Score         DG    S(hbond)    S(metal)    S(lipo)     H(rot)  DE(clash)    DE(int)     intcor
     13.59     -15.21       2.33        0.00      53.99       1.71       0.04       1.58       ----

> <Gold.Chemscore.Fitness>
13.5904

> <Gold.Chemscore.DG>
-15.2094

> <Gold.Chemscore.ZeroCoef>
-5.4800

> <Gold.Chemscore.Hbond>
2.3327

> <Gold.Chemscore.Metal>
0.0000

> <Gold.Chemscore.Lipo>
53.9930

> <Gold.Chemscore.Internal_Hbond>
0.0000

> <Gold.Chemscore.DEClash>
0.0380

> <Gold.Chemscore.DEInternal>
1.5810

> <Gold.Chemscore.Rot>
1.7106

> <Gold.Chemscore.Internal.Correction>
   9.000000E+99

> <Gold.Chemscore.Hbonds>
donor molecule, donor type, donor heavy atom, donor atom, acceptor molecule, acceptor atom, score
      L1  H     7    30       P1  7948  0.43
      P1  H  6896  6909       L1     2  0.69
      P1  H  7989  7998       L1    21  0.38

> <Gold.Chemscore.Hbond.Weighted>
-7.7913

> <Gold.Chemscore.Metal.Weighted>
-0.0000

> <Gold.Chemscore.Lipo.Weighted>
-6.3172

> <Gold.Chemscore.Internal_Hbond.Weighted>
0.0000

> <Gold.Chemscore.DEClash.Weighted>
0.0380

> <Gold.Chemscore.DEInternal.Weighted>
1.5810

> <Gold.Chemscore.Rot.Weighted>
4.3790

> <Gold.Chemscore.Internal.Correction.Weighted>
   9.000000E+99

> <Gold.Protein.RotatedTorsions>
[ 6907 6896 6895 6894 ] final  -57.35 input  -60.11 | X-H torsion
[ 7974 7965 7964 7962 ] final  127.22 input  175.53 | X-H torsion
[ 8008 7997 7996 7995 ] final -130.62 input   59.86 | X-H torsion
[ 10167 10162 10161 10158 ] final  155.11 input  -65.29 | X-H torsion
[ 10718 10713 10712 10709 ] final -154.93 input   66.30 | X-H torsion
[ 10763 10752 10751 10750 ] final  141.24 input  -60.55 | X-H torsion
[ 11005 11000 10999 10996 ] final   39.83 input  -57.11 | X-H torsion

> <Gold.Protein.ActiveResidues>
 VAL166  LYS551  ARG553  GLY616  TRP617  ASP618  TYR619  PRO620  LYS621  CYS622 
 ASP623  PHE694  ASN695  SER759  ASP760  ASP761  ALA762  ILE779  LEU786  VAL792 
 PHE793  MET794  SER795  GLU796  ALA797  LYS798  CYS799  TRP800  GLU811  SER814 

> <Gold.Protein.RotatedAtoms>
  150.8093  134.7238  159.6673 H   0  0  0  0  0  0  0  0  0  0  0  0  # atno 6907 bound_to 6896
  152.4213  134.5946  159.9993 H   0  0  0  0  0  0  0  0  0  0  0  0  # atno 6908 bound_to 6896
  151.6161  133.3306  159.3114 H   0  0  0  0  0  0  0  0  0  0  0  0  # atno 6909 bound_to 6896
  145.0529  139.3868  143.5044 H   0  0  0  0  0  0  0  0  0  0  0  0  # atno 7974 bound_to 7965
  155.2988  140.0452  157.3028 H   0  0  0  0  0  0  0  0  0  0  0  0  # atno 8008 bound_to 7997
  154.5498  140.2314  155.8470 H   0  0  0  0  0  0  0  0  0  0  0  0  # atno 8009 bound_to 7997
  156.1957  140.3039  155.9429 H   0  0  0  0  0  0  0  0  0  0  0  0  # atno 8010 bound_to 7997
  139.4822  144.5127  151.7999 H   0  0  0  0  0  0  0  0  0  0  0  0  # atno 10167 bound_to 10162
  156.5060  130.8413  151.2628 H   0  0  0  0  0  0  0  0  0  0  0  0  # atno 10718 bound_to 10713
  153.9359  135.2985  155.3444 H   0  0  0  0  0  0  0  0  0  0  0  0  # atno 10763 bound_to 10752
  154.7502  135.4984  153.9279 H   0  0  0  0  0  0  0  0  0  0  0  0  # atno 10764 bound_to 10752
  153.1067  135.6748  153.9679 H   0  0  0  0  0  0  0  0  0  0  0  0  # atno 10765 bound_to 10752
  140.1990  134.3893  155.8106 H   0  0  0  0  0  0  0  0  0  0  0  0  # atno 11005 bound_to 11000
  146.3519  140.0189  142.8660 LP  0  0  0  0  0  0  0  0  0  0  0  0  # atno 17320 bound_to 7965
  145.1504  140.9620  143.4436 LP  0  0  0  0  0  0  0  0  0  0  0  0  # atno 17321 bound_to 7965
  140.4632  144.1692  150.5909 LP  0  0  0  0  0  0  0  0  0  0  0  0  # atno 17342 bound_to 10162
  140.4462  143.2506  151.9408 LP  0  0  0  0  0  0  0  0  0  0  0  0  # atno 17343 bound_to 10162
  157.7457  130.9966  150.2784 LP  0  0  0  0  0  0  0  0  0  0  0  0  # atno 17370 bound_to 10713
  156.3286  130.3797  149.7511 LP  0  0  0  0  0  0  0  0  0  0  0  0  # atno 17371 bound_to 10713
  141.2227  133.7084  156.8225 LP  0  0  0  0  0  0  0  0  0  0  0  0  # atno 17394 bound_to 11000
  140.2075  134.8852  157.3238 LP  0  0  0  0  0  0  0  0  0  0  0  0  # atno 17395 bound_to 11000

$$$$
