AV-unprocessed.smi:1406|AV-procd|sdf|5711|dock2
  -GOLD-   22720 5343D 1   1.00000     0.00000
 Structure written by MMmdl.
 41 43  0  0  0  0  0  0  0  0  2 V2000
  148.0495  133.6012  157.1141 C   0  0  0  0  0  0  0  0  0  0  0  0
  148.4702  134.2997  155.8049 C   0  0  2  0  0  0  0  0  0  0  0  0
  148.6098  133.3252  154.6255 C   0  0  0  0  0  0  0  0  0  0  0  0
  149.7168  132.9343  154.2538 O   0  0  0  0  0  0  0  0  0  0  0  0
  147.4678  132.9636  154.0201 N   0  0  0  0  0  0  0  0  0  0  0  0
  147.3886  132.1593  152.8047 C   0  0  1  0  0  0  0  0  0  0  0  0
  146.5346  130.8947  152.9693 C   0  0  0  0  0  0  0  0  0  0  0  0
  145.8861  130.6649  151.5920 C   0  0  0  0  0  0  0  0  0  0  0  0
  146.3529  131.7710  150.7268 N   0  3  1  0  0  0  0  0  0  0  0  0
  145.4824  132.1251  149.5764 C   0  0  0  0  0  0  0  0  0  0  0  0
  144.2692  132.9755  149.9887 C   0  0  0  0  0  0  0  0  0  0  0  0
  144.7172  134.2109  150.7765 C   0  0  0  0  0  0  0  0  0  0  0  0
  145.5204  133.7734  152.0055 C   0  0  0  0  0  0  0  0  0  0  0  0
  146.7351  132.8892  151.6175 C   0  0  1  0  0  0  0  0  0  0  0  0
  149.7021  135.0650  155.9582 N   0  0  0  0  0  0  0  0  0  0  0  0
  150.3267  135.8670  155.0929 C   0  0  0  0  0  0  0  0  0  0  0  0
  151.4743  136.3549  155.5415 N   0  0  0  0  0  0  0  0  0  0  0  0
  151.5036  135.7707  156.7758 C   0  0  0  0  0  0  0  0  0  0  0  0
  150.4749  134.9759  157.0695 N   0  0  0  0  0  0  0  0  0  0  0  0
  147.0955  133.0866  156.9952 H   0  0  0  0  0  0  0  0  0  0  0  0
  147.9304  134.3265  157.9196 H   0  0  0  0  0  0  0  0  0  0  0  0
  148.7838  132.8639  157.4418 H   0  0  0  0  0  0  0  0  0  0  0  0
  147.6815  135.0092  155.5489 H   0  0  0  0  0  0  0  0  0  0  0  0
  146.5993  133.3190  154.3929 H   0  0  0  0  0  0  0  0  0  0  0  0
  148.3947  131.8491  152.5138 H   0  0  0  0  0  0  0  0  0  0  0  0
  147.1368  130.0430  153.2870 H   0  0  0  0  0  0  0  0  0  0  0  0
  145.7562  131.0433  153.7192 H   0  0  0  0  0  0  0  0  0  0  0  0
  146.1721  129.7055  151.1600 H   0  0  0  0  0  0  0  0  0  0  0  0
  144.7998  130.6758  151.6874 H   0  0  0  0  0  0  0  0  0  0  0  0
  146.0859  132.6877  148.8632 H   0  0  0  0  0  0  0  0  0  0  0  0
  145.1623  131.2183  149.0620 H   0  0  0  0  0  0  0  0  0  0  0  0
  143.7143  133.2823  149.1015 H   0  0  0  0  0  0  0  0  0  0  0  0
  143.5800  132.3827  150.5911 H   0  0  0  0  0  0  0  0  0  0  0  0
  145.3260  134.8584  150.1441 H   0  0  0  0  0  0  0  0  0  0  0  0
  143.8502  134.7964  151.0838 H   0  0  0  0  0  0  0  0  0  0  0  0
  145.8560  134.6575  152.5487 H   0  0  0  0  0  0  0  0  0  0  0  0
  144.8602  133.2315  152.6838 H   0  0  0  0  0  0  0  0  0  0  0  0
  147.4696  133.5110  151.1035 H   0  0  0  0  0  0  0  0  0  0  0  0
  149.9393  136.0892  154.1095 H   0  0  0  0  0  0  0  0  0  0  0  0
  152.3124  135.9267  157.4745 H   0  0  0  0  0  0  0  0  0  0  0  0
  147.2202  131.4375  150.3302 H   0  0  0  0  0  0  0  0  0  0  0  0
  1  2  1  0  0  0  0
  1 20  1  0  0  0  0
  1 21  1  0  0  0  0
  1 22  1  0  0  0  0
  2  3  1  0  0  0  0
  2 15  1  0  0  0  0
  2 23  1  0  0  0  0
  3  4  2  0  0  0  0
  3  5  1  0  0  0  0
  5  6  1  0  0  0  0
  5 24  1  0  0  0  0
  6 14  1  0  0  0  0
  6  7  1  0  0  0  0
  6 25  1  0  0  0  0
  7  8  1  0  0  0  0
  7 26  1  0  0  0  0
  7 27  1  0  0  0  0
  8  9  1  0  0  0  0
  8 28  1  0  0  0  0
  8 29  1  0  0  0  0
  9 14  1  0  0  0  0
  9 10  1  0  0  0  0
  9 41  1  0  0  0  0
 10 11  1  0  0  0  0
 10 30  1  0  0  0  0
 10 31  1  0  0  0  0
 11 12  1  0  0  0  0
 11 32  1  0  0  0  0
 11 33  1  0  0  0  0
 12 13  1  0  0  0  0
 12 34  1  0  0  0  0
 12 35  1  0  0  0  0
 13 14  1  0  0  0  0
 13 36  1  0  0  0  0
 13 37  1  0  0  0  0
 14 38  1  0  0  0  0
 15 19  1  0  0  0  0
 15 16  1  0  0  0  0
 16 17  2  0  0  0  0
 16 39  1  0  0  0  0
 17 18  1  0  0  0  0
 18 19  2  0  0  0  0
 18 40  1  0  0  0  0
M  CHG  1   9   1
M  END
> <s_m_source_file>
AV-unprocessed.smi

> <i_m_source_file_index>
1406

> <i_lp_mmshare_version>
43012

> <i_f3d_flags>
0

> <s_epik_input>
bjFbY0hdbltjSF1uMVtDQEhdKFtDSDNdKUMoPU8pW05IXVtDQEhdKFtDSDJdW0NIMl0yKVtDQEBIXShOMjMpW0NIMl1bQ0gyXVtDSDJdW0NIMl0z

> <s_epik_cmdline>
J2VwaWtfcHl0aG9uJywgJy1waCcsICc3LjAnLCAnLXRuJywgJzgnLCAnLW1hJywgJzIwMCcsICctbWV0YWxfYmluZGluZycsICctaW1hZScsICc8aW5maWxlLm1hZT4nLCAnLW9tYWUnLCAnPG91dGZpbGUubWFlPic=

> <r_lp_tautomer_probability>
1

> <r_epik_Ionization_Penalty>
0.00197066

> <r_epik_Ionization_Penalty_Charging>
0.00196223

> <r_epik_Ionization_Penalty_Neutral>
8.43107e-06

> <r_epik_State_Penalty>
0.00133866

> <r_epik_Charging_Adjusted_Penalty>
0.00330089

> <i_epik_Tot_Q>
1

> <i_epik_Tot_abs_Q>
1

> <r_epik_Metal_State_Penalty>
-0

> <b_epik_Metal_Only>
0

> <s_lp_Force_Field>
OPLS_2005

> <r_lp_Energy>
41.142

> <b_lp_Chiralities_Consistent>
1

> <s_lp_Variant>
AV-unprocessed.smi:1406-3

> <Gold.Version>
5.8.1

> <Gold.Id.Protein>
6NUR|6NUR_protein|mol2

> <Gold.PLP.Fitness>
37.4357

> <Gold.PLP.PLP>
-29.7745

> <Gold.PLP.part.hbond>
-2.6916

> <Gold.PLP.part.metal>
0.0000

> <Gold.PLP.part.buried>
-5.8865

> <Gold.PLP.part.nonpolar>
-22.5737

> <Gold.PLP.part.repulsive>
0.2378

> <Gold.PLP.ligand.clash>
0.0000

> <Gold.PLP.ligand.torsion>
0.6963

> <Gold.PLP.Chemscore.Hbond>
2.0000

> <Gold.PLP.Chemscore.CHOScore>
0.9822

> <Gold.PLP.Chemscore.Metal>
0.0000

> <Gold.Chemscore.Hbonds>
donor molecule, donor type, donor heavy atom, donor atom, acceptor molecule, acceptor atom, score
      L1  H     9    41       P1 10747  1.00
      P1  H 10752 10764       L1    17  1.00
      L1  C    16    39       P1  7948  0.98

> <Gold.PLP.Chemscore.Internal.Correction>
0.1071

> <Gold.Rescore>
     Score         DG    S(hbond)    S(metal)    S(lipo)     H(rot)  DE(clash)    DE(int)     intcor
     14.34     -15.17       1.91        0.00      69.63       1.89       0.12       0.71       ----

> <Gold.Chemscore.Fitness>
14.3404

> <Gold.Chemscore.DG>
-15.1690

> <Gold.Chemscore.ZeroCoef>
-5.4800

> <Gold.Chemscore.Hbond>
1.9077

> <Gold.Chemscore.Metal>
0.0000

> <Gold.Chemscore.Lipo>
69.6303

> <Gold.Chemscore.Internal_Hbond>
0.0000

> <Gold.Chemscore.DEClash>
0.1204

> <Gold.Chemscore.DEInternal>
0.7082

> <Gold.Chemscore.Rot>
1.8865

> <Gold.Chemscore.Internal.Correction>
   9.000000E+99

> <Gold.Chemscore.Hbonds>
donor molecule, donor type, donor heavy atom, donor atom, acceptor molecule, acceptor atom, score
      L1  H     9    41       P1 10747  0.99
      P1  H 10752 10764       L1    17  0.35

> <Gold.Chemscore.Hbond.Weighted>
-6.3718

> <Gold.Chemscore.Metal.Weighted>
-0.0000

> <Gold.Chemscore.Lipo.Weighted>
-8.1467

> <Gold.Chemscore.Internal_Hbond.Weighted>
0.0000

> <Gold.Chemscore.DEClash.Weighted>
0.1204

> <Gold.Chemscore.DEInternal.Weighted>
0.7082

> <Gold.Chemscore.Rot.Weighted>
4.8295

> <Gold.Chemscore.Internal.Correction.Weighted>
   9.000000E+99

> <Gold.Protein.RotatedTorsions>
[ 6907 6896 6895 6894 ] final   52.44 input  -60.11 | X-H torsion
[ 7974 7965 7964 7962 ] final  -86.74 input  175.53 | X-H torsion
[ 8008 7997 7996 7995 ] final  -66.47 input   59.86 | X-H torsion
[ 10167 10162 10161 10158 ] final   71.67 input  -65.29 | X-H torsion
[ 10718 10713 10712 10709 ] final   73.77 input   66.30 | X-H torsion
[ 10763 10752 10751 10750 ] final  -57.88 input  -60.55 | X-H torsion
[ 11005 11000 10999 10996 ] final   -0.13 input  -57.11 | X-H torsion

> <Gold.Protein.ActiveResidues>
 VAL166  LYS551  ARG553  GLY616  TRP617  ASP618  TYR619  PRO620  LYS621  CYS622 
 ASP623  PHE694  ASN695  SER759  ASP760  ASP761  ALA762  ILE779  LEU786  VAL792 
 PHE793  MET794  SER795  GLU796  ALA797  LYS798  CYS799  TRP800  GLU811  SER814 

> <Gold.Protein.RotatedAtoms>
  152.3233  134.7352  160.0307 H   0  0  0  0  0  0  0  0  0  0  0  0  # atno 6907 bound_to 6896
  151.7794  133.3343  159.3475 H   0  0  0  0  0  0  0  0  0  0  0  0  # atno 6908 bound_to 6896
  150.7382  134.5876  159.6015 H   0  0  0  0  0  0  0  0  0  0  0  0  # atno 6909 bound_to 6896
  145.4759  140.9558  143.1891 H   0  0  0  0  0  0  0  0  0  0  0  0  # atno 7974 bound_to 7965
  154.4737  140.0912  156.7208 H   0  0  0  0  0  0  0  0  0  0  0  0  # atno 8008 bound_to 7997
  155.4655  140.3462  155.4300 H   0  0  0  0  0  0  0  0  0  0  0  0  # atno 8009 bound_to 7997
  156.1081  140.1440  156.9364 H   0  0  0  0  0  0  0  0  0  0  0  0  # atno 8010 bound_to 7997
  140.0436  144.5369  150.7415 H   0  0  0  0  0  0  0  0  0  0  0  0  # atno 10167 bound_to 10162
  157.6563  130.9645  150.1117 H   0  0  0  0  0  0  0  0  0  0  0  0  # atno 10718 bound_to 10713
  154.2294  135.6363  153.5170 H   0  0  0  0  0  0  0  0  0  0  0  0  # atno 10763 bound_to 10752
  152.9952  135.5515  154.6029 H   0  0  0  0  0  0  0  0  0  0  0  0  # atno 10764 bound_to 10752
  154.5508  135.2901  155.0984 H   0  0  0  0  0  0  0  0  0  0  0  0  # atno 10765 bound_to 10752
  140.6329  133.9559  155.8284 H   0  0  0  0  0  0  0  0  0  0  0  0  # atno 11005 bound_to 11000
  144.7917  139.6314  143.7110 LP  0  0  0  0  0  0  0  0  0  0  0  0  # atno 17320 bound_to 7965
  146.2369  139.5924  142.9517 LP  0  0  0  0  0  0  0  0  0  0  0  0  # atno 17321 bound_to 7965
  140.7249  143.2625  151.4155 LP  0  0  0  0  0  0  0  0  0  0  0  0  # atno 17342 bound_to 10162
  139.5998  144.1320  152.2185 LP  0  0  0  0  0  0  0  0  0  0  0  0  # atno 17343 bound_to 10162
  156.2012  130.3660  149.8786 LP  0  0  0  0  0  0  0  0  0  0  0  0  # atno 17370 bound_to 10713
  156.6689  130.8812  151.3559 LP  0  0  0  0  0  0  0  0  0  0  0  0  # atno 17371 bound_to 10713
  141.0662  134.0272  157.3590 LP  0  0  0  0  0  0  0  0  0  0  0  0  # atno 17394 bound_to 11000
  139.9109  135.0190  156.7688 LP  0  0  0  0  0  0  0  0  0  0  0  0  # atno 17395 bound_to 11000

$$$$
