AV-unprocessed.smi:3140|AV-procd|sdf|11960|dock8
  -GOLD-   2272017363D 1   1.00000     0.00000
 Structure written by MMmdl.
 37 38  0  0  0  0  0  0  0  0  1 V2000
  148.7249  140.4527  157.3094 C   0  0  0  0  0  0  0  0  0  0  0  0
  149.2896  141.3926  156.2320 C   0  0  2  0  0  0  0  0  0  0  0  0
  149.3593  140.7279  154.8324 C   0  0  0  0  0  0  0  0  0  0  0  0
  150.2984  139.6200  154.7476 N   0  0  0  0  0  0  0  0  0  0  0  0
  150.0292  138.2704  154.6562 C   0  0  0  0  0  0  0  0  0  0  0  0
  151.2276  137.6190  154.5952 C   0  0  0  0  0  0  0  0  0  0  0  0
  152.1861  138.6691  154.6494 C   0  0  0  0  0  0  0  0  0  0  0  0
  151.6271  139.8645  154.7353 N   0  0  0  0  0  0  0  0  0  0  0  0
  150.5983  141.8458  156.6889 N   0  0  0  0  0  0  0  0  0  0  0  0
  150.5418  142.5274  157.9745 C   0  0  0  0  0  0  0  0  0  0  0  0
  151.8900  143.2119  158.2564 C   0  0  0  0  0  0  0  0  0  0  0  0
  152.2467  143.1489  159.6735 N   0  0  0  0  0  0  0  0  0  0  0  0
  151.9483  144.2600  160.5616 C   0  0  0  0  0  0  0  0  0  0  0  0
  152.4619  143.8310  161.9444 C   0  0  0  0  0  0  0  0  0  0  0  0
  153.0404  142.4219  161.7723 C   0  0  0  0  0  0  0  0  0  0  0  0
  152.8514  142.1294  160.2942 C   0  0  0  0  0  0  0  0  0  0  0  0
  153.2169  141.0773  159.7721 O   0  0  0  0  0  0  0  0  0  0  0  0
  147.7462  140.0699  157.0190 H   0  0  0  0  0  0  0  0  0  0  0  0
  148.6026  140.9741  158.2593 H   0  0  0  0  0  0  0  0  0  0  0  0
  149.3777  139.5974  157.4870 H   0  0  0  0  0  0  0  0  0  0  0  0
  148.6287  142.2584  156.1738 H   0  0  0  0  0  0  0  0  0  0  0  0
  148.3725  140.3452  154.5694 H   0  0  0  0  0  0  0  0  0  0  0  0
  149.6032  141.4533  154.0563 H   0  0  0  0  0  0  0  0  0  0  0  0
  149.0181  137.8907  154.6459 H   0  0  0  0  0  0  0  0  0  0  0  0
  151.3945  136.5546  154.5214 H   0  0  0  0  0  0  0  0  0  0  0  0
  153.2636  138.5992  154.6264 H   0  0  0  0  0  0  0  0  0  0  0  0
  151.2251  141.0573  156.7622 H   0  0  0  0  0  0  0  0  0  0  0  0
  149.7398  143.2637  158.0012 H   0  0  0  0  0  0  0  0  0  0  0  0
  150.3280  141.7936  158.7521 H   0  0  0  0  0  0  0  0  0  0  0  0
  152.6736  142.7200  157.6782 H   0  0  0  0  0  0  0  0  0  0  0  0
  151.8723  144.2492  157.9189 H   0  0  0  0  0  0  0  0  0  0  0  0
  152.4469  145.1663  160.2163 H   0  0  0  0  0  0  0  0  0  0  0  0
  150.8739  144.4476  160.5815 H   0  0  0  0  0  0  0  0  0  0  0  0
  153.2264  144.5211  162.3034 H   0  0  0  0  0  0  0  0  0  0  0  0
  151.6526  143.8328  162.6756 H   0  0  0  0  0  0  0  0  0  0  0  0
  154.0976  142.3831  162.0365 H   0  0  0  0  0  0  0  0  0  0  0  0
  152.5012  141.6884  162.3729 H   0  0  0  0  0  0  0  0  0  0  0  0
  1  2  1  0  0  0  0
  1 18  1  0  0  0  0
  1 19  1  0  0  0  0
  1 20  1  0  0  0  0
  2  3  1  0  0  0  0
  2  9  1  0  0  0  0
  2 21  1  0  0  0  0
  3  4  1  0  0  0  0
  3 22  1  0  0  0  0
  3 23  1  0  0  0  0
  4  8  1  0  0  0  0
  4  5  1  0  0  0  0
  5  6  2  0  0  0  0
  5 24  1  0  0  0  0
  6  7  1  0  0  0  0
  6 25  1  0  0  0  0
  7  8  2  0  0  0  0
  7 26  1  0  0  0  0
  9 10  1  0  0  0  0
  9 27  1  0  0  0  0
 10 11  1  0  0  0  0
 10 28  1  0  0  0  0
 10 29  1  0  0  0  0
 11 12  1  0  0  0  0
 11 30  1  0  0  0  0
 11 31  1  0  0  0  0
 12 16  1  0  0  0  0
 12 13  1  0  0  0  0
 13 14  1  0  0  0  0
 13 32  1  0  0  0  0
 13 33  1  0  0  0  0
 14 15  1  0  0  0  0
 14 34  1  0  0  0  0
 14 35  1  0  0  0  0
 15 16  1  0  0  0  0
 15 36  1  0  0  0  0
 15 37  1  0  0  0  0
 16 17  2  0  0  0  0
M  END
> <s_m_source_file>
AV-unprocessed.smi

> <i_m_source_file_index>
3140

> <i_lp_mmshare_version>
43012

> <i_f3d_flags>
0

> <s_epik_input>
bjFbY0hdW2NIXVtjSF1uMVtDSDJdW0NAQEhdKFtDSDNdKVtOSF1bQ0gyXVtDSDJdTjJbQ0gyXVtDSDJdW0NIMl1DMj1P

> <s_epik_cmdline>
J2VwaWtfcHl0aG9uJywgJy1waCcsICc3LjAnLCAnLXRuJywgJzgnLCAnLW1hJywgJzIwMCcsICctbWV0YWxfYmluZGluZycsICctaW1hZScsICc8aW5maWxlLm1hZT4nLCAnLW9tYWUnLCAnPG91dGZpbGUubWFlPic=

> <r_lp_tautomer_probability>
1

> <r_epik_Ionization_Penalty>
2.53587

> <r_epik_Ionization_Penalty_Charging>
0

> <r_epik_Ionization_Penalty_Neutral>
2.53587

> <r_epik_State_Penalty>
2.70334

> <r_epik_Charging_Adjusted_Penalty>
2.70334

> <i_epik_Tot_Q>
0

> <i_epik_Tot_abs_Q>
0

> <r_epik_Metal_State_Penalty>
2.7033

> <b_epik_Metal_Only>
0

> <s_lp_Force_Field>
OPLS_2005

> <r_lp_Energy>
23.3858

> <b_lp_Chiralities_Consistent>
1

> <s_lp_Variant>
AV-unprocessed.smi:3140-3

> <Gold.Version>
5.8.1

> <Gold.Id.Protein>
6NUR|6NUR_protein|mol2

> <Gold.PLP.Fitness>
45.0965

> <Gold.PLP.PLP>
-43.5934

> <Gold.PLP.part.hbond>
-0.8852

> <Gold.PLP.part.metal>
0.0000

> <Gold.PLP.part.buried>
-6.4730

> <Gold.PLP.part.nonpolar>
-36.1591

> <Gold.PLP.part.repulsive>
0.0710

> <Gold.PLP.ligand.clash>
0.0000

> <Gold.PLP.ligand.torsion>
0.7821

> <Gold.PLP.Chemscore.Hbond>
1.0000

> <Gold.PLP.Chemscore.CHOScore>
0.0000

> <Gold.PLP.Chemscore.Metal>
0.0000

> <Gold.Chemscore.Hbonds>
donor molecule, donor type, donor heavy atom, donor atom, acceptor molecule, acceptor atom, score
      P1  H  7989  7998       L1     8  0.90

> <Gold.PLP.Chemscore.Internal.Correction>
0.0672

> <Gold.Rescore>
     Score         DG    S(hbond)    S(metal)    S(lipo)     H(rot)  DE(clash)    DE(int)     intcor
     12.93     -13.85       0.90        0.00      88.92       1.97       0.11       0.80       ----

> <Gold.Chemscore.Fitness>
12.9346

> <Gold.Chemscore.DG>
-13.8495

> <Gold.Chemscore.ZeroCoef>
-5.4800

> <Gold.Chemscore.Hbond>
0.9027

> <Gold.Chemscore.Metal>
0.0000

> <Gold.Chemscore.Lipo>
88.9173

> <Gold.Chemscore.Internal_Hbond>
0.0000

> <Gold.Chemscore.DEClash>
0.1110

> <Gold.Chemscore.DEInternal>
0.8038

> <Gold.Chemscore.Rot>
1.9722

> <Gold.Chemscore.Internal.Correction>
   9.000000E+99

> <Gold.Chemscore.Hbonds>
donor molecule, donor type, donor heavy atom, donor atom, acceptor molecule, acceptor atom, score
      P1  H  7989  7998       L1     8  0.17

> <Gold.Chemscore.Hbond.Weighted>
-3.0149

> <Gold.Chemscore.Metal.Weighted>
-0.0000

> <Gold.Chemscore.Lipo.Weighted>
-10.4033

> <Gold.Chemscore.Internal_Hbond.Weighted>
0.0000

> <Gold.Chemscore.DEClash.Weighted>
0.1110

> <Gold.Chemscore.DEInternal.Weighted>
0.8038

> <Gold.Chemscore.Rot.Weighted>
5.0487

> <Gold.Chemscore.Internal.Correction.Weighted>
   9.000000E+99

> <Gold.Protein.RotatedTorsions>
[ 6907 6896 6895 6894 ] final -119.29 input  -60.11 | X-H torsion
[ 7974 7965 7964 7962 ] final  104.59 input  175.53 | X-H torsion
[ 8008 7997 7996 7995 ] final   13.67 input   59.86 | X-H torsion
[ 10167 10162 10161 10158 ] final   93.26 input  -65.29 | X-H torsion
[ 10718 10713 10712 10709 ] final  113.74 input   66.30 | X-H torsion
[ 10763 10752 10751 10750 ] final  131.61 input  -60.55 | X-H torsion
[ 11005 11000 10999 10996 ] final   27.79 input  -57.11 | X-H torsion

> <Gold.Protein.ActiveResidues>
 VAL166  LYS551  ARG553  GLY616  TRP617  ASP618  TYR619  PRO620  LYS621  CYS622 
 ASP623  PHE694  ASN695  SER759  ASP760  ASP761  ALA762  ILE779  LEU786  VAL792 
 PHE793  MET794  SER795  GLU796  ALA797  LYS798  CYS799  TRP800  GLU811  SER814 

> <Gold.Protein.RotatedAtoms>
  150.8292  133.8119  159.3105 H   0  0  0  0  0  0  0  0  0  0  0  0  # atno 6907 bound_to 6896
  151.5854  135.1054  160.0036 H   0  0  0  0  0  0  0  0  0  0  0  0  # atno 6908 bound_to 6896
  152.4374  133.7344  159.6662 H   0  0  0  0  0  0  0  0  0  0  0  0  # atno 6909 bound_to 6896
  145.3307  139.2487  143.3662 H   0  0  0  0  0  0  0  0  0  0  0  0  # atno 7974 bound_to 7965
  154.8377  140.2909  155.5680 H   0  0  0  0  0  0  0  0  0  0  0  0  # atno 8008 bound_to 7997
  156.3010  140.2520  156.3245 H   0  0  0  0  0  0  0  0  0  0  0  0  # atno 8009 bound_to 7997
  154.9160  140.0387  157.1962 H   0  0  0  0  0  0  0  0  0  0  0  0  # atno 8010 bound_to 7997
  139.8197  144.6736  150.9534 H   0  0  0  0  0  0  0  0  0  0  0  0  # atno 10167 bound_to 10162
  157.6321  131.0988  150.7085 H   0  0  0  0  0  0  0  0  0  0  0  0  # atno 10718 bound_to 10713
  153.7772  135.3173  155.3360 H   0  0  0  0  0  0  0  0  0  0  0  0  # atno 10763 bound_to 10752
  154.8175  135.4626  154.0686 H   0  0  0  0  0  0  0  0  0  0  0  0  # atno 10764 bound_to 10752
  153.1964  135.6916  153.8372 H   0  0  0  0  0  0  0  0  0  0  0  0  # atno 10765 bound_to 10752
  140.3225  134.2528  155.7715 H   0  0  0  0  0  0  0  0  0  0  0  0  # atno 11005 bound_to 11000
  146.3046  140.3884  142.8691 LP  0  0  0  0  0  0  0  0  0  0  0  0  # atno 17320 bound_to 7965
  144.8866  140.7470  143.5953 LP  0  0  0  0  0  0  0  0  0  0  0  0  # atno 17321 bound_to 7965
  140.7814  143.4103  151.1003 LP  0  0  0  0  0  0  0  0  0  0  0  0  # atno 17342 bound_to 10162
  139.7765  143.8418  152.3130 LP  0  0  0  0  0  0  0  0  0  0  0  0  # atno 17343 bound_to 10162
  156.7423  130.4743  149.5475 LP  0  0  0  0  0  0  0  0  0  0  0  0  # atno 17370 bound_to 10713
  156.1532  130.6324  151.0623 LP  0  0  0  0  0  0  0  0  0  0  0  0  # atno 17371 bound_to 10713
  141.2083  133.7781  157.0066 LP  0  0  0  0  0  0  0  0  0  0  0  0  # atno 17394 bound_to 11000
  140.0930  134.9581  157.1806 LP  0  0  0  0  0  0  0  0  0  0  0  0  # atno 17395 bound_to 11000

$$$$
