AV-unprocessed.smi:2751|AV-procd|sdf|10604|dock7
  -GOLD-   2272015 53D 1   1.00000     0.00000
 Structure written by MMmdl.
 33 34  0  0  0  0  0  0  0  0  2 V2000
  151.8524  139.9716  155.1028 O   0  0  0  0  0  0  0  0  0  0  0  0
  150.6849  139.9375  155.4990 C   0  0  0  0  0  0  0  0  0  0  0  0
  150.3756  140.4231  156.7104 N   0  0  0  0  0  0  0  0  0  0  0  0
  151.3127  141.0181  157.6576 C   0  0  0  0  0  0  0  0  0  0  0  0
  151.1911  142.5515  157.6873 C   0  0  0  0  0  0  0  0  0  0  0  0
  151.9612  143.1897  158.8542 C   0  0  1  0  0  0  0  0  0  0  0  0
  151.3757  144.5594  159.2500 C   0  0  0  0  0  0  0  0  0  0  0  0
  152.1184  145.1343  160.4616 C   0  0  0  0  0  0  0  0  0  0  0  0
  152.1299  144.1049  161.5966 C   0  0  0  0  0  0  0  0  0  0  0  0
  152.6671  142.7570  161.0895 C   0  0  0  0  0  0  0  0  0  0  0  0
  151.8941  142.3136  159.9784 O   0  0  0  0  0  0  0  0  0  0  0  0
  149.6231  139.4449  154.8216 N   0  5  0  0  0  0  0  0  0  0  0  0
  148.6528  140.2745  154.4052 C   0  0  0  0  0  0  0  0  0  0  0  0
  147.5299  139.9252  153.7750 N   0  0  0  0  0  0  0  0  0  0  0  0
  146.8376  141.1052  153.5514 C   0  0  0  0  0  0  0  0  0  0  0  0
  147.5783  142.1312  154.0715 C   0  0  0  0  0  0  0  0  0  0  0  0
  148.7238  141.6196  154.6156 O   0  0  0  0  0  0  0  0  0  0  0  0
  149.4085  140.3746  156.9955 H   0  0  0  0  0  0  0  0  0  0  0  0
  151.0965  140.6075  158.6440 H   0  0  0  0  0  0  0  0  0  0  0  0
  152.3332  140.7178  157.4146 H   0  0  0  0  0  0  0  0  0  0  0  0
  151.5713  142.9577  156.7491 H   0  0  0  0  0  0  0  0  0  0  0  0
  150.1397  142.8374  157.7409 H   0  0  0  0  0  0  0  0  0  0  0  0
  153.0043  143.3158  158.5580 H   0  0  0  0  0  0  0  0  0  0  0  0
  151.4373  145.2543  158.4119 H   0  0  0  0  0  0  0  0  0  0  0  0
  150.3168  144.4516  159.4894 H   0  0  0  0  0  0  0  0  0  0  0  0
  153.1426  145.3828  160.1803 H   0  0  0  0  0  0  0  0  0  0  0  0
  151.6491  146.0612  160.7918 H   0  0  0  0  0  0  0  0  0  0  0  0
  152.7362  144.4654  162.4279 H   0  0  0  0  0  0  0  0  0  0  0  0
  151.1179  143.9717  161.9808 H   0  0  0  0  0  0  0  0  0  0  0  0
  153.7175  142.8378  160.8061 H   0  0  0  0  0  0  0  0  0  0  0  0
  152.6080  142.0086  161.8798 H   0  0  0  0  0  0  0  0  0  0  0  0
  145.8828  141.1209  153.0474 H   0  0  0  0  0  0  0  0  0  0  0  0
  147.4445  143.2006  154.1335 H   0  0  0  0  0  0  0  0  0  0  0  0
  1  2  2  0  0  0  0
  2 12  1  0  0  0  0
  2  3  1  0  0  0  0
  3  4  1  0  0  0  0
  3 18  1  0  0  0  0
  4  5  1  0  0  0  0
  4 19  1  0  0  0  0
  4 20  1  0  0  0  0
  5  6  1  0  0  0  0
  5 21  1  0  0  0  0
  5 22  1  0  0  0  0
  6 11  1  0  0  0  0
  6  7  1  0  0  0  0
  6 23  1  0  0  0  0
  7  8  1  0  0  0  0
  7 24  1  0  0  0  0
  7 25  1  0  0  0  0
  8  9  1  0  0  0  0
  8 26  1  0  0  0  0
  8 27  1  0  0  0  0
  9 10  1  0  0  0  0
  9 28  1  0  0  0  0
  9 29  1  0  0  0  0
 10 11  1  0  0  0  0
 10 30  1  0  0  0  0
 10 31  1  0  0  0  0
 12 13  1  0  0  0  0
 13 17  1  0  0  0  0
 13 14  2  0  0  0  0
 14 15  1  0  0  0  0
 15 32  1  0  0  0  0
 15 16  2  0  0  0  0
 16 33  1  0  0  0  0
 16 17  1  0  0  0  0
M  CHG  1  12  -1
M  END
> <s_m_source_file>
AV-unprocessed.smi

> <i_m_source_file_index>
2751

> <i_lp_mmshare_version>
43012

> <i_f3d_flags>
0

> <s_epik_input>
bzFbY0hdW2NIXW5jMVtOSF1DKD1PKVtOSF1bQ0gyXVtDSDJdW0NAQEhdMltDSDJdW0NIMl1bQ0gyXVtDSDJdTzI=

> <s_epik_cmdline>
J2VwaWtfcHl0aG9uJywgJy1waCcsICc3LjAnLCAnLXRuJywgJzgnLCAnLW1hJywgJzIwMCcsICctbWV0YWxfYmluZGluZycsICctaW1hZScsICc8aW5maWxlLm1hZT4nLCAnLW9tYWUnLCAnPG91dGZpbGUubWFlPic=

> <r_lp_tautomer_probability>
0.107061

> <r_epik_Ionization_Penalty>
11.077

> <r_epik_Ionization_Penalty_Charging>
7.79122

> <r_epik_Ionization_Penalty_Neutral>
3.28583

> <r_epik_State_Penalty>
5.8984

> <r_epik_Charging_Adjusted_Penalty>
13.6896

> <i_epik_Tot_Q>
-1

> <i_epik_Tot_abs_Q>
1

> <r_epik_Metal_State_Penalty>
1.82322

> <b_epik_Metal_Only>
1

> <s_lp_Force_Field>
OPLS_2005

> <r_lp_Energy>
3.95886

> <b_lp_Chiralities_Consistent>
1

> <s_lp_Variant>
AV-unprocessed.smi:2751-10

> <Gold.Version>
5.8.1

> <Gold.Id.Protein>
6NUR|6NUR_protein|mol2

> <Gold.PLP.Fitness>
43.4522

> <Gold.PLP.PLP>
-37.0427

> <Gold.PLP.part.hbond>
-1.0000

> <Gold.PLP.part.metal>
0.0000

> <Gold.PLP.part.buried>
-7.6930

> <Gold.PLP.part.nonpolar>
-29.6525

> <Gold.PLP.part.repulsive>
0.4831

> <Gold.PLP.ligand.clash>
0.0000

> <Gold.PLP.ligand.torsion>
1.0481

> <Gold.PLP.Chemscore.Hbond>
0.9280

> <Gold.PLP.Chemscore.CHOScore>
1.8983

> <Gold.PLP.Chemscore.Metal>
0.0000

> <Gold.Chemscore.Hbonds>
donor molecule, donor type, donor heavy atom, donor atom, acceptor molecule, acceptor atom, score
      P1  H  7989  7998       L1     1  0.93
      L1  C    15    32       P1 10175  0.99
      L1  C    16    33       P1  8028  0.88

> <Gold.PLP.Chemscore.Internal.Correction>
0.0269

> <Gold.Rescore>
     Score         DG    S(hbond)    S(metal)    S(lipo)     H(rot)  DE(clash)    DE(int)     intcor
     13.42     -14.70       0.92        0.00      87.60       1.60       0.11       1.17       ----

> <Gold.Chemscore.Fitness>
13.4192

> <Gold.Chemscore.DG>
-14.6989

> <Gold.Chemscore.ZeroCoef>
-5.4800

> <Gold.Chemscore.Hbond>
0.9216

> <Gold.Chemscore.Metal>
0.0000

> <Gold.Chemscore.Lipo>
87.5986

> <Gold.Chemscore.Internal_Hbond>
0.0000

> <Gold.Chemscore.DEClash>
0.1074

> <Gold.Chemscore.DEInternal>
1.1723

> <Gold.Chemscore.Rot>
1.6048

> <Gold.Chemscore.Internal.Correction>
   9.000000E+99

> <Gold.Chemscore.Hbonds>
donor molecule, donor type, donor heavy atom, donor atom, acceptor molecule, acceptor atom, score
      P1  H  7989  7998       L1     1  0.27

> <Gold.Chemscore.Hbond.Weighted>
-3.0780

> <Gold.Chemscore.Metal.Weighted>
-0.0000

> <Gold.Chemscore.Lipo.Weighted>
-10.2490

> <Gold.Chemscore.Internal_Hbond.Weighted>
0.0000

> <Gold.Chemscore.DEClash.Weighted>
0.1074

> <Gold.Chemscore.DEInternal.Weighted>
1.1723

> <Gold.Chemscore.Rot.Weighted>
4.1082

> <Gold.Chemscore.Internal.Correction.Weighted>
   9.000000E+99

> <Gold.Protein.RotatedTorsions>
[ 6907 6896 6895 6894 ] final   24.73 input  -60.11 | X-H torsion
[ 7974 7965 7964 7962 ] final -149.95 input  175.53 | X-H torsion
[ 8008 7997 7996 7995 ] final -177.62 input   59.86 | X-H torsion
[ 10167 10162 10161 10158 ] final  111.22 input  -65.29 | X-H torsion
[ 10718 10713 10712 10709 ] final   49.99 input   66.30 | X-H torsion
[ 10763 10752 10751 10750 ] final   51.97 input  -60.55 | X-H torsion
[ 11005 11000 10999 10996 ] final   38.55 input  -57.11 | X-H torsion

> <Gold.Protein.ActiveResidues>
 VAL166  LYS551  ARG553  GLY616  TRP617  ASP618  TYR619  PRO620  LYS621  CYS622 
 ASP623  PHE694  ASN695  SER759  ASP760  ASP761  ALA762  ILE779  LEU786  VAL792 
 PHE793  MET794  SER795  GLU796  ALA797  LYS798  CYS799  TRP800  GLU811  SER814 

> <Gold.Protein.RotatedAtoms>
  151.9619  135.0119  160.0547 H   0  0  0  0  0  0  0  0  0  0  0  0  # atno 6907 bound_to 6896
  152.1861  133.4736  159.4992 H   0  0  0  0  0  0  0  0  0  0  0  0  # atno 6908 bound_to 6896
  150.6926  134.1689  159.4247 H   0  0  0  0  0  0  0  0  0  0  0  0  # atno 6909 bound_to 6896
  144.7937  140.4997  143.5755 H   0  0  0  0  0  0  0  0  0  0  0  0  # atno 7974 bound_to 7965
  156.0091  140.1237  157.0472 H   0  0  0  0  0  0  0  0  0  0  0  0  # atno 8008 bound_to 7997
  154.4269  140.1091  156.5873 H   0  0  0  0  0  0  0  0  0  0  0  0  # atno 8009 bound_to 7997
  155.6105  140.3471  155.4623 H   0  0  0  0  0  0  0  0  0  0  0  0  # atno 8010 bound_to 7997
  139.6628  144.7128  151.1833 H   0  0  0  0  0  0  0  0  0  0  0  0  # atno 10167 bound_to 10162
  157.4841  130.8334  149.8127 H   0  0  0  0  0  0  0  0  0  0  0  0  # atno 10718 bound_to 10713
  152.9787  135.5828  154.4502 H   0  0  0  0  0  0  0  0  0  0  0  0  # atno 10763 bound_to 10752
  154.4092  135.2770  155.2050 H   0  0  0  0  0  0  0  0  0  0  0  0  # atno 10764 bound_to 10752
  154.3847  135.6139  153.5864 H   0  0  0  0  0  0  0  0  0  0  0  0  # atno 10765 bound_to 10752
  140.2115  134.3749  155.8047 H   0  0  0  0  0  0  0  0  0  0  0  0  # atno 11005 bound_to 11000
  145.5729  139.1484  143.3278 LP  0  0  0  0  0  0  0  0  0  0  0  0  # atno 17320 bound_to 7965
  146.2198  140.5861  142.9022 LP  0  0  0  0  0  0  0  0  0  0  0  0  # atno 17321 bound_to 7965
  140.7587  143.5967  150.8741 LP  0  0  0  0  0  0  0  0  0  0  0  0  # atno 17342 bound_to 10162
  139.9626  143.6147  152.2998 LP  0  0  0  0  0  0  0  0  0  0  0  0  # atno 17343 bound_to 10162
  156.0137  130.3822  150.2179 LP  0  0  0  0  0  0  0  0  0  0  0  0  # atno 17370 bound_to 10713
  157.0366  131.0023  151.3296 LP  0  0  0  0  0  0  0  0  0  0  0  0  # atno 17371 bound_to 10713
  141.2226  133.7146  156.8426 LP  0  0  0  0  0  0  0  0  0  0  0  0  # atno 17394 bound_to 11000
  140.1945  134.8941  157.3099 LP  0  0  0  0  0  0  0  0  0  0  0  0  # atno 17395 bound_to 11000

$$$$
