AV-unprocessed.smi:1165|AV-procd|sdf|4930|dock8
  -GOLD-   22720 3513D 1   1.00000     0.00000
 Structure written by MMmdl.
 41 42  0  0  0  0  0  0  0  0  1 V2000
  145.9725  142.1636  155.2326 C   0  0  0  0  0  0  0  0  0  0  0  0
  147.0268  142.1815  154.1106 C   0  0  1  0  0  0  0  0  0  0  0  0
  148.4757  142.1547  154.6333 C   0  0  0  0  0  0  0  0  0  0  0  0
  148.8560  140.8093  155.0961 N   0  0  0  0  0  0  0  0  0  0  0  0
  150.3107  140.6528  156.0244 S   0  0  0  0  0  0  0  0  0  0  0  0
  150.0280  139.8232  157.2058 O   0  0  0  0  0  0  0  0  0  0  0  0
  151.4104  140.3240  155.1049 O   0  0  0  0  0  0  0  0  0  0  0  0
  150.5008  142.2869  156.5459 N   0  0  0  0  0  0  0  0  0  0  0  0
  150.6578  142.5785  157.9700 C   0  0  0  0  0  0  0  0  0  0  0  0
  152.1162  142.9351  158.2810 C   0  0  0  0  0  0  0  0  0  0  0  0
  152.4336  142.7898  159.7558 C   0  0  0  0  0  0  0  0  0  0  0  0
  153.2717  141.7551  160.2199 C   0  0  0  0  0  0  0  0  0  0  0  0
  153.5310  141.6616  161.6009 C   0  0  0  0  0  0  0  0  0  0  0  0
  152.9390  142.6085  162.4605 C   0  0  0  0  0  0  0  0  0  0  0  0
  152.1338  143.6024  162.0269 N   0  0  0  0  0  0  0  0  0  0  0  0
  151.8905  143.6853  160.7015 C   0  0  0  0  0  0  0  0  0  0  0  0
  148.5759  139.7618  154.1049 C   0  0  0  0  0  0  0  0  0  0  0  0
  147.1132  139.8333  153.6324 C   0  0  2  0  0  0  0  0  0  0  0  0
  146.8293  138.8434  152.4972 C   0  0  0  0  0  0  0  0  0  0  0  0
  146.8185  141.1423  153.1570 O   0  0  0  0  0  0  0  0  0  0  0  0
  146.0750  143.0401  155.8728 H   0  0  0  0  0  0  0  0  0  0  0  0
  146.0619  141.2868  155.8728 H   0  0  0  0  0  0  0  0  0  0  0  0
  144.9642  142.1748  154.8180 H   0  0  0  0  0  0  0  0  0  0  0  0
  146.8899  143.1175  153.5686 H   0  0  0  0  0  0  0  0  0  0  0  0
  149.1595  142.4507  153.8365 H   0  0  0  0  0  0  0  0  0  0  0  0
  148.5974  142.8827  155.4347 H   0  0  0  0  0  0  0  0  0  0  0  0
  149.8871  142.9352  156.0533 H   0  0  0  0  0  0  0  0  0  0  0  0
  150.0044  143.4078  158.2409 H   0  0  0  0  0  0  0  0  0  0  0  0
  150.3412  141.7122  158.5517 H   0  0  0  0  0  0  0  0  0  0  0  0
  152.7890  142.2994  157.7038 H   0  0  0  0  0  0  0  0  0  0  0  0
  152.3246  143.9621  157.9773 H   0  0  0  0  0  0  0  0  0  0  0  0
  153.7074  141.0447  159.5328 H   0  0  0  0  0  0  0  0  0  0  0  0
  154.1682  140.8824  161.9927 H   0  0  0  0  0  0  0  0  0  0  0  0
  153.1167  142.5663  163.5249 H   0  0  0  0  0  0  0  0  0  0  0  0
  151.2407  144.4887  160.3863 H   0  0  0  0  0  0  0  0  0  0  0  0
  149.2587  139.8835  153.2629 H   0  0  0  0  0  0  0  0  0  0  0  0
  148.7741  138.7815  154.5385 H   0  0  0  0  0  0  0  0  0  0  0  0
  146.4517  139.5860  154.4628 H   0  0  0  0  0  0  0  0  0  0  0  0
  147.0225  137.8179  152.8131 H   0  0  0  0  0  0  0  0  0  0  0  0
  147.4533  139.0495  151.6271 H   0  0  0  0  0  0  0  0  0  0  0  0
  145.7876  138.9018  152.1809 H   0  0  0  0  0  0  0  0  0  0  0  0
  1  2  1  0  0  0  0
  1 21  1  0  0  0  0
  1 22  1  0  0  0  0
  1 23  1  0  0  0  0
  2 20  1  0  0  0  0
  2  3  1  0  0  0  0
  2 24  1  0  0  0  0
  3  4  1  0  0  0  0
  3 25  1  0  0  0  0
  3 26  1  0  0  0  0
  4  5  1  0  0  0  0
  4 17  1  0  0  0  0
  5  6  2  0  0  0  0
  5  7  2  0  0  0  0
  5  8  1  0  0  0  0
  8  9  1  0  0  0  0
  8 27  1  0  0  0  0
  9 10  1  0  0  0  0
  9 28  1  0  0  0  0
  9 29  1  0  0  0  0
 10 11  1  0  0  0  0
 10 30  1  0  0  0  0
 10 31  1  0  0  0  0
 11 16  1  0  0  0  0
 11 12  2  0  0  0  0
 12 13  1  0  0  0  0
 12 32  1  0  0  0  0
 13 14  2  0  0  0  0
 13 33  1  0  0  0  0
 14 15  1  0  0  0  0
 14 34  1  0  0  0  0
 15 16  2  0  0  0  0
 16 35  1  0  0  0  0
 17 18  1  0  0  0  0
 17 36  1  0  0  0  0
 17 37  1  0  0  0  0
 18 19  1  0  0  0  0
 18 20  1  0  0  0  0
 18 38  1  0  0  0  0
 19 39  1  0  0  0  0
 19 40  1  0  0  0  0
 19 41  1  0  0  0  0
M  END
> <s_m_source_file>
AV-unprocessed.smi

> <i_m_source_file_index>
1165

> <i_lp_mmshare_version>
43012

> <i_f3d_flags>
0

> <s_epik_input>
W0NIM11bQ0BASF0xW0NIMl1OKFtDSDJdW0NASF0oTzEpW0NIM10pUyg9TykoPU8pW05IXVtDSDJdW0NIMl1jMltjSF1bY0hdW2NIXW5bY0hdMg==

> <s_epik_cmdline>
J2VwaWtfcHl0aG9uJywgJy1waCcsICc3LjAnLCAnLXRuJywgJzgnLCAnLW1hJywgJzIwMCcsICctbWV0YWxfYmluZGluZycsICctaW1hZScsICc8aW5maWxlLm1hZT4nLCAnLW9tYWUnLCAnPG91dGZpbGUubWFlPic=

> <r_epik_Ionization_Penalty>
0.0861056

> <r_epik_Ionization_Penalty_Charging>
0

> <r_epik_Ionization_Penalty_Neutral>
0.0861056

> <r_epik_State_Penalty>
0.0574425

> <r_epik_Charging_Adjusted_Penalty>
0.0574425

> <i_epik_Tot_Q>
0

> <i_epik_Tot_abs_Q>
0

> <r_epik_Metal_State_Penalty>
0.317425

> <b_epik_Metal_Only>
0

> <s_lp_Force_Field>
OPLS_2005

> <r_lp_Energy>
8.11282

> <b_lp_Chiralities_Consistent>
1

> <s_lp_Variant>
AV-unprocessed.smi:1165-3

> <Gold.Version>
5.8.1

> <Gold.Id.Protein>
6NUR|6NUR_protein|mol2

> <Gold.PLP.Fitness>
46.9077

> <Gold.PLP.PLP>
-42.9586

> <Gold.PLP.part.hbond>
-2.0000

> <Gold.PLP.part.metal>
0.0000

> <Gold.PLP.part.buried>
-2.8890

> <Gold.PLP.part.nonpolar>
-37.4659

> <Gold.PLP.part.repulsive>
0.5202

> <Gold.PLP.ligand.clash>
0.0000

> <Gold.PLP.ligand.torsion>
1.3953

> <Gold.PLP.Chemscore.Hbond>
1.9920

> <Gold.PLP.Chemscore.CHOScore>
0.0000

> <Gold.PLP.Chemscore.Metal>
0.0000

> <Gold.Chemscore.Hbonds>
donor molecule, donor type, donor heavy atom, donor atom, acceptor molecule, acceptor atom, score
      L1  H     8    27       P1  8028  0.86
      P1  H  7989  7998       L1     7  0.99

> <Gold.PLP.Chemscore.Internal.Correction>
0.7637

> <Gold.Rescore>
     Score         DG    S(hbond)    S(metal)    S(lipo)     H(rot)  DE(clash)    DE(int)     intcor
     18.64     -20.73       1.85        0.00     114.75       1.71       0.83       1.26       ----

> <Gold.Chemscore.Fitness>
18.6415

> <Gold.Chemscore.DG>
-20.7333

> <Gold.Chemscore.ZeroCoef>
-5.4800

> <Gold.Chemscore.Hbond>
1.8547

> <Gold.Chemscore.Metal>
0.0000

> <Gold.Chemscore.Lipo>
114.7521

> <Gold.Chemscore.Internal_Hbond>
0.0000

> <Gold.Chemscore.DEClash>
0.8278

> <Gold.Chemscore.DEInternal>
1.2641

> <Gold.Chemscore.Rot>
1.7060

> <Gold.Chemscore.Internal.Correction>
   9.000000E+99

> <Gold.Chemscore.Hbonds>
donor molecule, donor type, donor heavy atom, donor atom, acceptor molecule, acceptor atom, score
      L1  H     8    27       P1  8028  0.83
      P1  H  7989  7998       L1     7  0.94

> <Gold.Chemscore.Hbond.Weighted>
-6.1947

> <Gold.Chemscore.Metal.Weighted>
-0.0000

> <Gold.Chemscore.Lipo.Weighted>
-13.4260

> <Gold.Chemscore.Internal_Hbond.Weighted>
0.0000

> <Gold.Chemscore.DEClash.Weighted>
0.8278

> <Gold.Chemscore.DEInternal.Weighted>
1.2641

> <Gold.Chemscore.Rot.Weighted>
4.3674

> <Gold.Chemscore.Internal.Correction.Weighted>
   9.000000E+99

> <Gold.Protein.RotatedTorsions>
[ 6907 6896 6895 6894 ] final -160.79 input  -60.11 | X-H torsion
[ 7974 7965 7964 7962 ] final  135.13 input  175.53 | X-H torsion
[ 8008 7997 7996 7995 ] final  142.81 input   59.86 | X-H torsion
[ 10167 10162 10161 10158 ] final  -46.51 input  -65.29 | X-H torsion
[ 10718 10713 10712 10709 ] final   18.91 input   66.30 | X-H torsion
[ 10763 10752 10751 10750 ] final  -60.22 input  -60.55 | X-H torsion
[ 11005 11000 10999 10996 ] final   35.47 input  -57.11 | X-H torsion

> <Gold.Protein.ActiveResidues>
 VAL166  LYS551  ARG553  GLY616  TRP617  ASP618  TYR619  PRO620  LYS621  CYS622 
 ASP623  PHE694  ASN695  SER759  ASP760  ASP761  ALA762  ILE779  LEU786  VAL792 
 PHE793  MET794  SER795  GLU796  ALA797  LYS798  CYS799  TRP800  GLU811  SER814 

> <Gold.Protein.RotatedAtoms>
  151.3545  133.3912  159.2683 H   0  0  0  0  0  0  0  0  0  0  0  0  # atno 6907 bound_to 6896
  150.9774  134.9137  159.7834 H   0  0  0  0  0  0  0  0  0  0  0  0  # atno 6908 bound_to 6896
  152.5205  134.3509  159.9303 H   0  0  0  0  0  0  0  0  0  0  0  0  # atno 6909 bound_to 6896
  144.9694  139.4622  143.5440 H   0  0  0  0  0  0  0  0  0  0  0  0  # atno 7974 bound_to 7965
  156.2942  140.2279  156.4788 H   0  0  0  0  0  0  0  0  0  0  0  0  # atno 8008 bound_to 7997
  154.7871  140.0456  157.1193 H   0  0  0  0  0  0  0  0  0  0  0  0  # atno 8009 bound_to 7997
  154.9689  140.3064  155.5000 H   0  0  0  0  0  0  0  0  0  0  0  0  # atno 8010 bound_to 7997
  140.6814  143.2827  151.3793 H   0  0  0  0  0  0  0  0  0  0  0  0  # atno 10167 bound_to 10162
  157.1030  130.6476  149.5877 H   0  0  0  0  0  0  0  0  0  0  0  0  # atno 10718 bound_to 10713
  154.2658  135.6299  153.5291 H   0  0  0  0  0  0  0  0  0  0  0  0  # atno 10763 bound_to 10752
  152.9888  135.5598  154.5655 H   0  0  0  0  0  0  0  0  0  0  0  0  # atno 10764 bound_to 10752
  154.5214  135.2882  155.1235 H   0  0  0  0  0  0  0  0  0  0  0  0  # atno 10765 bound_to 10752
  140.2423  134.3400  155.7921 H   0  0  0  0  0  0  0  0  0  0  0  0  # atno 11005 bound_to 11000
  146.3377  139.8897  142.8811 LP  0  0  0  0  0  0  0  0  0  0  0  0  # atno 17320 bound_to 7965
  145.2581  141.0067  143.3842 LP  0  0  0  0  0  0  0  0  0  0  0  0  # atno 17321 bound_to 7965
  139.6140  144.1041  152.2327 LP  0  0  0  0  0  0  0  0  0  0  0  0  # atno 17342 bound_to 10162
  140.0464  144.5967  150.7370 LP  0  0  0  0  0  0  0  0  0  0  0  0  # atno 17343 bound_to 10162
  155.9869  130.4905  150.7099 LP  0  0  0  0  0  0  0  0  0  0  0  0  # atno 17370 bound_to 10713
  157.4624  131.0884  151.0731 LP  0  0  0  0  0  0  0  0  0  0  0  0  # atno 17371 bound_to 10713
  141.2209  133.7306  156.8905 LP  0  0  0  0  0  0  0  0  0  0  0  0  # atno 17394 bound_to 11000
  140.1641  134.9145  157.2752 LP  0  0  0  0  0  0  0  0  0  0  0  0  # atno 17395 bound_to 11000

$$$$
