#       Name:                AV-unprocessed.smi:1426
#       Creating user name   scv26
#       Creation time:       Fri Mar 27 05:46:07 2020


#       File generated by GOLD software.
#

@<TRIPOS>MOLECULE
AV-unprocessed.smi:1426
    49    51     1
SMALL
NO_CHARGES


@<TRIPOS>ATOM
      1 ****         1.7464   1.9787   0.8561 O.2            1 S1                 0.0000
      2 ****         1.1696   0.8949   0.9446 C.2            1 S1                 0.0000
      3 ****         1.8077  -0.2781   1.0575 N.am           1 S1                 0.0000
      4 ****         3.2575  -0.4443   1.0838 C.3            1 S1                 0.0000
      5 ****         3.8826  -0.3665  -0.3263 C.3            1 S1                 0.0000
      6 ****         3.4504  -1.4962  -1.2510 C.3            1 S1                 0.0000
      7 ****         4.4941  -2.5919  -1.0127 C.3            1 S1                 0.0000
      8 ****         5.5418  -1.9917  -0.2576 O.3            1 S1                 0.0000
      9 ****         5.3940  -0.5806  -0.2970 C.3            1 S1                 0.0000
     10 ****        -0.1627   0.7236   0.9189 N.am           1 S1                 0.0000
     11 ****        -1.1743   1.7155   0.7753 C.ar           1 S1                 0.0000
     12 ****        -1.0003   3.0262   1.2901 C.ar           1 S1                 0.0000
     13 ****        -2.0101   3.9908   1.1142 C.ar           1 S1                 0.0000
     14 ****        -3.1829   3.6303   0.4295 C.ar           1 S1                 0.0000
     15 ****        -3.3276   2.3706  -0.0305 N.pl3          1 S1                 1.0000
     16 ****        -2.3988   1.3933   0.1202 C.ar           1 S1                 0.0000
     17 ****        -2.6969   0.1145  -0.4032 N.3            1 S1                 0.0000
     18 ****        -3.8664  -0.0806  -1.2523 C.3            1 S1                 0.0000
     19 ****        -4.0509  -1.5934  -1.3284 C.3            1 S1                 0.0000
     20 ****        -3.6233  -2.0457   0.0648 C.3            1 S1                 0.0000
     21 ****        -2.5149  -1.0582   0.4467 C.3            1 S1                 0.0000
     22 ****         1.2547  -1.1202   1.1237 H              1 S1                 0.0000
     23 ****         3.7000   0.3113   1.7351 H              1 S1                 0.0000
     24 ****         3.4787  -1.4086   1.5426 H              1 S1                 0.0000
     25 ****         3.6505   0.6040  -0.7670 H              1 S1                 0.0000
     26 ****         2.4308  -1.8419  -1.0790 H              1 S1                 0.0000
     27 ****         3.5093  -1.1596  -2.2869 H              1 S1                 0.0000
     28 ****         4.0771  -3.4248  -0.4460 H              1 S1                 0.0000
     29 ****         4.8784  -2.9825  -1.9554 H              1 S1                 0.0000
     30 ****         5.8526  -0.2006  -1.2112 H              1 S1                 0.0000
     31 ****         5.8822  -0.0996   0.5512 H              1 S1                 0.0000
     32 ****        -0.4848  -0.2328   0.8995 H              1 S1                 0.0000
     33 ****        -0.1063   3.3077   1.8256 H              1 S1                 0.0000
     34 ****        -1.8843   4.9926   1.4985 H              1 S1                 0.0000
     35 ****        -4.0081   4.3028   0.2443 H              1 S1                 0.0000
     36 ****        -4.7482   0.3726  -0.7974 H              1 S1                 0.0000
     37 ****        -3.7212   0.3602  -2.2389 H              1 S1                 0.0000
     38 ****        -5.0709  -1.8858  -1.5793 H              1 S1                 0.0000
     39 ****        -3.3812  -2.0146  -2.0798 H              1 S1                 0.0000
     40 ****        -4.4617  -1.9416   0.7550 H              1 S1                 0.0000
     41 ****        -3.2932  -3.0845   0.0926 H              1 S1                 0.0000
     42 ****        -1.5384  -1.4965   0.2377 H              1 S1                 0.0000
     43 ****        -2.5568  -0.8067   1.5078 H              1 S1                 0.0000
     44 ****        -4.1946   2.1369  -0.5145 H              1 S1                 0.0000
     45 ****         2.7457   2.0156   0.8663 LP             1 S1                 0.0000
     46 ****         1.2157   2.8223   0.7739 LP             1 S1                 0.0000
     47 ****         6.4256  -2.2468  -0.6498 LP             1 S1                 0.0000
     48 ****         5.4943  -2.3069   0.6902 LP             1 S1                 0.0000
     49 ****        -1.9149   0.1690  -1.0241 LP             1 S1                 0.0000
@<TRIPOS>BOND
    1    1    2 2     
    2    2    3 am    
    3    2   10 am    
    4    3    4 1     
    5    3   22 1     
    6    4    5 1     
    7    4   23 1     
    8    4   24 1     
    9    5    9 1     
   10    5    6 1     
   11    5   25 1     
   12    6    7 1     
   13    6   26 1     
   14    6   27 1     
   15    7    8 1     
   16    7   28 1     
   17    7   29 1     
   18    8    9 1     
   19    9   30 1     
   20    9   31 1     
   21   10   11 1     
   22   10   32 1     
   23   11   16 ar    
   24   11   12 ar    
   25   12   13 ar    
   26   12   33 1     
   27   13   14 ar    
   28   13   34 1     
   29   14   15 ar    
   30   14   35 1     
   31   15   16 ar    
   32   15   44 1     
   33   16   17 1     
   34   17   21 1     
   35   17   18 1     
   36   18   19 1     
   37   18   36 1     
   38   18   37 1     
   39   19   20 1     
   40   19   38 1     
   41   19   39 1     
   42   20   21 1     
   43   20   40 1     
   44   20   41 1     
   45   21   42 1     
   46   21   43 1     
   47    1   45 1     
   48    1   46 1     
   49    8   47 1     
   50    8   48 1     
   51   17   49 1     
@<TRIPOS>SUBSTRUCTURE
      1 S1             1
@<TRIPOS>SET
LONE_PAIRS      STATIC     ATOMS    <user>   **** ""
5 45 46 47 48 49
DONOR_HYDROGENS      STATIC     ATOMS    <user>   **** ""
3 22 32 44
ATOM$BLUE        STATIC     ATOMS    COLORGROUP SYSTEM
5 45 46 47 48 49
ATOM$RED        STATIC     ATOMS    COLORGROUP SYSTEM
3 22 32 44
