AV-unprocessed.smi:3276|AV-procd|sdf|12534|dock3
  -GOLD-   2272018453D 1   1.00000     0.00000
 Structure written by MMmdl.
 39 40  0  0  0  0  0  0  0  0  1 V2000
  146.4170  141.9936  153.7389 C   0  0  0  0  0  0  0  0  0  0  0  0
  147.4551  140.9177  153.9758 C   0  0  0  0  0  0  0  0  0  0  0  0
  147.3248  139.6292  153.4154 C   0  0  0  0  0  0  0  0  0  0  0  0
  148.2508  138.6691  153.6265 N   0  0  0  0  0  0  0  0  0  0  0  0
  149.3083  139.0011  154.4026 C   0  0  0  0  0  0  0  0  0  0  0  0
  150.3382  137.9092  154.6314 C   0  0  0  0  0  0  0  0  0  0  0  0
  149.4436  140.2935  154.9711 C   0  0  0  0  0  0  0  0  0  0  0  0
  150.5548  140.6026  155.7694 N   0  0  0  0  0  0  0  0  0  0  0  0
  150.3953  141.4219  156.9625 C   0  0  0  0  0  0  0  0  0  0  0  0
  151.5251  141.1689  157.9656 C   0  0  0  0  0  0  0  0  0  0  0  0
  151.1743  141.7655  159.2027 O   0  0  0  0  0  0  0  0  0  0  0  0
  152.2957  142.2365  159.9316 C   0  0  0  0  0  0  0  0  0  0  0  0
  152.4225  143.7564  159.7565 C   0  0  2  0  0  0  0  0  0  0  0  0
  151.3868  144.5875  160.5187 C   0  0  0  0  0  0  0  0  0  0  0  0
  151.2923  145.8241  159.6541 C   0  0  0  0  0  0  0  0  0  0  0  0
  151.4095  145.2267  158.2553 C   0  0  0  0  0  0  0  0  0  0  0  0
  152.3029  144.1250  158.3843 O   0  0  0  0  0  0  0  0  0  0  0  0
  148.5100  141.2519  154.7515 N   0  0  0  0  0  0  0  0  0  0  0  0
  145.6633  141.6623  153.0238 H   0  0  0  0  0  0  0  0  0  0  0  0
  146.8865  142.8957  153.3453 H   0  0  0  0  0  0  0  0  0  0  0  0
  145.9140  142.2453  154.6730 H   0  0  0  0  0  0  0  0  0  0  0  0
  146.4790  139.3656  152.7975 H   0  0  0  0  0  0  0  0  0  0  0  0
  150.4519  137.7112  155.6975 H   0  0  0  0  0  0  0  0  0  0  0  0
  151.3061  138.2127  154.2317 H   0  0  0  0  0  0  0  0  0  0  0  0
  150.0479  136.9772  154.1442 H   0  0  0  0  0  0  0  0  0  0  0  0
  151.3800  140.0249  155.6984 H   0  0  0  0  0  0  0  0  0  0  0  0
  150.3995  142.4717  156.6671 H   0  0  0  0  0  0  0  0  0  0  0  0
  149.4303  141.2200  157.4289 H   0  0  0  0  0  0  0  0  0  0  0  0
  151.6996  140.0982  158.0854 H   0  0  0  0  0  0  0  0  0  0  0  0
  152.4502  141.6133  157.5962 H   0  0  0  0  0  0  0  0  0  0  0  0
  152.1762  142.0000  160.9899 H   0  0  0  0  0  0  0  0  0  0  0  0
  153.2042  141.7413  159.5856 H   0  0  0  0  0  0  0  0  0  0  0  0
  153.4188  144.0679  160.0739 H   0  0  0  0  0  0  0  0  0  0  0  0
  150.4181  144.0869  160.5456 H   0  0  0  0  0  0  0  0  0  0  0  0
  151.6863  144.8025  161.5448 H   0  0  0  0  0  0  0  0  0  0  0  0
  150.3688  146.3839  159.8033 H   0  0  0  0  0  0  0  0  0  0  0  0
  152.1339  146.4886  159.8536 H   0  0  0  0  0  0  0  0  0  0  0  0
  150.4414  144.8508  157.9217 H   0  0  0  0  0  0  0  0  0  0  0  0
  151.7658  145.9472  157.5191 H   0  0  0  0  0  0  0  0  0  0  0  0
  1  2  1  0  0  0  0
  1 19  1  0  0  0  0
  1 20  1  0  0  0  0
  1 21  1  0  0  0  0
  2 18  1  0  0  0  0
  2  3  2  0  0  0  0
  3  4  1  0  0  0  0
  3 22  1  0  0  0  0
  4  5  2  0  0  0  0
  5  6  1  0  0  0  0
  5  7  1  0  0  0  0
  6 23  1  0  0  0  0
  6 24  1  0  0  0  0
  6 25  1  0  0  0  0
  7  8  1  0  0  0  0
  7 18  2  0  0  0  0
  8  9  1  0  0  0  0
  8 26  1  0  0  0  0
  9 10  1  0  0  0  0
  9 27  1  0  0  0  0
  9 28  1  0  0  0  0
 10 11  1  0  0  0  0
 10 29  1  0  0  0  0
 10 30  1  0  0  0  0
 11 12  1  0  0  0  0
 12 13  1  0  0  0  0
 12 31  1  0  0  0  0
 12 32  1  0  0  0  0
 13 17  1  0  0  0  0
 13 14  1  0  0  0  0
 13 33  1  0  0  0  0
 14 15  1  0  0  0  0
 14 34  1  0  0  0  0
 14 35  1  0  0  0  0
 15 16  1  0  0  0  0
 15 36  1  0  0  0  0
 15 37  1  0  0  0  0
 16 17  1  0  0  0  0
 16 38  1  0  0  0  0
 16 39  1  0  0  0  0
M  END
> <s_m_source_file>
AV-unprocessed.smi

> <i_m_source_file_index>
3276

> <i_lp_mmshare_version>
43012

> <i_f3d_flags>
0

> <s_epik_input>
W0NIM11jMVtjSF1uYyhbQ0gzXSljKG4xKVtOSF1bQ0gyXVtDSDJdT1tDSDJdW0NAQEhdMltDSDJdW0NIMl1bQ0gyXU8y

> <s_epik_cmdline>
J2VwaWtfcHl0aG9uJywgJy1waCcsICc3LjAnLCAnLXRuJywgJzgnLCAnLW1hJywgJzIwMCcsICctbWV0YWxfYmluZGluZycsICctaW1hZScsICc8aW5maWxlLm1hZT4nLCAnLW9tYWUnLCAnPG91dGZpbGUubWFlPic=

> <r_lp_tautomer_probability>
1

> <r_epik_Ionization_Penalty>
0.000506

> <r_epik_Ionization_Penalty_Charging>
0

> <r_epik_Ionization_Penalty_Neutral>
0.000506

> <r_epik_State_Penalty>
-0

> <r_epik_Charging_Adjusted_Penalty>
0

> <i_epik_Tot_Q>
0

> <i_epik_Tot_abs_Q>
0

> <r_epik_Metal_State_Penalty>
-0

> <b_epik_Metal_Only>
0

> <s_lp_Force_Field>
OPLS_2005

> <r_lp_Energy>
26.3084

> <b_lp_Chiralities_Consistent>
1

> <s_lp_Variant>
AV-unprocessed.smi:3276-1

> <Gold.Version>
5.8.1

> <Gold.Id.Protein>
6NUR|6NUR_protein|mol2

> <Gold.PLP.Fitness>
43.8269

> <Gold.PLP.PLP>
-42.8212

> <Gold.PLP.part.hbond>
-0.0356

> <Gold.PLP.part.metal>
0.0000

> <Gold.PLP.part.buried>
-8.4901

> <Gold.PLP.part.nonpolar>
-36.8748

> <Gold.PLP.part.repulsive>
2.3776

> <Gold.PLP.ligand.clash>
0.0000

> <Gold.PLP.ligand.torsion>
1.0880

> <Gold.PLP.Chemscore.Hbond>
0.0000

> <Gold.PLP.Chemscore.CHOScore>
0.9883

> <Gold.PLP.Chemscore.Metal>
0.0000

> <Gold.PLP.Chemscore.Internal.Correction>
0.2169

> <Gold.Rescore>
     Score         DG    S(hbond)    S(metal)    S(lipo)     H(rot)  DE(clash)    DE(int)     intcor
     12.18     -13.24       0.00        0.00     103.11       1.68       0.06       1.00       ----

> <Gold.Chemscore.Fitness>
12.1795

> <Gold.Chemscore.DG>
-13.2380

> <Gold.Chemscore.ZeroCoef>
-5.4800

> <Gold.Chemscore.Hbond>
0.0000

> <Gold.Chemscore.Metal>
0.0000

> <Gold.Chemscore.Lipo>
103.1092

> <Gold.Chemscore.Internal_Hbond>
0.0000

> <Gold.Chemscore.DEClash>
0.0616

> <Gold.Chemscore.DEInternal>
0.9969

> <Gold.Chemscore.Rot>
1.6820

> <Gold.Chemscore.Internal.Correction>
   9.000000E+99

> <Gold.Chemscore.Hbond.Weighted>
-0.0000

> <Gold.Chemscore.Metal.Weighted>
-0.0000

> <Gold.Chemscore.Lipo.Weighted>
-12.0638

> <Gold.Chemscore.Internal_Hbond.Weighted>
0.0000

> <Gold.Chemscore.DEClash.Weighted>
0.0616

> <Gold.Chemscore.DEInternal.Weighted>
0.9969

> <Gold.Chemscore.Rot.Weighted>
4.3058

> <Gold.Chemscore.Internal.Correction.Weighted>
   9.000000E+99

> <Gold.Protein.RotatedTorsions>
[ 6907 6896 6895 6894 ] final -178.22 input  -60.11 | X-H torsion
[ 7974 7965 7964 7962 ] final  -57.89 input  175.53 | X-H torsion
[ 8008 7997 7996 7995 ] final   66.12 input   59.86 | X-H torsion
[ 10167 10162 10161 10158 ] final  -33.63 input  -65.29 | X-H torsion
[ 10718 10713 10712 10709 ] final  -74.03 input   66.30 | X-H torsion
[ 10763 10752 10751 10750 ] final  -89.14 input  -60.55 | X-H torsion
[ 11005 11000 10999 10996 ] final  172.19 input  -57.11 | X-H torsion

> <Gold.Protein.ActiveResidues>
 VAL166  LYS551  ARG553  GLY616  TRP617  ASP618  TYR619  PRO620  LYS621  CYS622 
 ASP623  PHE694  ASN695  SER759  ASP760  ASP761  ALA762  ILE779  LEU786  VAL792 
 PHE793  MET794  SER795  GLU796  ALA797  LYS798  CYS799  TRP800  GLU811  SER814 

> <Gold.Protein.RotatedAtoms>
  151.6337  133.3330  159.3114 H   0  0  0  0  0  0  0  0  0  0  0  0  # atno 6907 bound_to 6896
  150.8043  134.7162  159.6641 H   0  0  0  0  0  0  0  0  0  0  0  0  # atno 6908 bound_to 6896
  152.4138  134.6083  160.0070 H   0  0  0  0  0  0  0  0  0  0  0  0  # atno 6909 bound_to 6896
  145.8458  140.8386  143.0011 H   0  0  0  0  0  0  0  0  0  0  0  0  # atno 7974 bound_to 7965
  155.6725  140.3497  155.4824 H   0  0  0  0  0  0  0  0  0  0  0  0  # atno 8008 bound_to 7997
  155.9676  140.1149  157.0863 H   0  0  0  0  0  0  0  0  0  0  0  0  # atno 8009 bound_to 7997
  154.4158  140.1163  156.5249 H   0  0  0  0  0  0  0  0  0  0  0  0  # atno 8010 bound_to 7997
  140.7201  143.3606  151.1970 H   0  0  0  0  0  0  0  0  0  0  0  0  # atno 10167 bound_to 10162
  156.0258  130.4407  150.2831 H   0  0  0  0  0  0  0  0  0  0  0  0  # atno 10718 bound_to 10713
  154.6521  135.5351  153.7914 H   0  0  0  0  0  0  0  0  0  0  0  0  # atno 10763 bound_to 10752
  153.0392  135.6485  154.1001 H   0  0  0  0  0  0  0  0  0  0  0  0  # atno 10764 bound_to 10752
  154.0917  135.2939  155.3250 H   0  0  0  0  0  0  0  0  0  0  0  0  # atno 10765 bound_to 10752
  140.3271  134.7389  157.4107 H   0  0  0  0  0  0  0  0  0  0  0  0  # atno 11005 bound_to 11000
  144.6731  140.0880  143.7466 LP  0  0  0  0  0  0  0  0  0  0  0  0  # atno 17320 bound_to 7965
  145.9414  139.2671  143.1267 LP  0  0  0  0  0  0  0  0  0  0  0  0  # atno 17321 bound_to 7965
  139.7158  143.9303  152.2966 LP  0  0  0  0  0  0  0  0  0  0  0  0  # atno 17342 bound_to 10162
  139.9044  144.6893  150.8630 LP  0  0  0  0  0  0  0  0  0  0  0  0  # atno 17343 bound_to 10162
  157.0934  131.0176  151.3113 LP  0  0  0  0  0  0  0  0  0  0  0  0  # atno 17370 bound_to 10713
  157.4836  130.7780  149.7438 LP  0  0  0  0  0  0  0  0  0  0  0  0  # atno 17371 bound_to 10713
  140.0892  134.5624  155.8461 LP  0  0  0  0  0  0  0  0  0  0  0  0  # atno 17394 bound_to 11000
  141.2072  133.6662  156.6294 LP  0  0  0  0  0  0  0  0  0  0  0  0  # atno 17395 bound_to 11000

$$$$
