AV-unprocessed.smi:791|AV-procd|sdf|3749|dock5
  -GOLD-   22720 1183D 1   1.00000     0.00000
 Structure written by MMmdl.
 30 32  0  0  0  0  0  0  0  0  2 V2000
  147.9865  141.0514  153.9692 C   0  0  0  0  0  0  0  0  0  0  0  0
  147.6703  139.6088  153.5394 C   0  0  0  0  0  0  0  0  0  0  0  0
  148.9160  138.8557  153.2753 N   0  3  0  0  0  0  0  0  0  0  0  0
  149.8221  138.8077  154.4440 C   0  0  0  0  0  0  0  0  0  0  0  0
  150.1778  140.2294  154.9227 C   0  0  2  0  0  0  0  0  0  0  0  0
  151.1081  140.2094  156.0961 C   0  0  0  0  0  0  0  0  0  0  0  0
  152.2554  139.5426  156.0525 N   0  0  0  0  0  0  0  0  0  0  0  0
  152.8046  139.7571  157.3246 O   0  0  0  0  0  0  0  0  0  0  0  0
  151.9211  140.5465  157.9800 C   0  0  0  0  0  0  0  0  0  0  0  0
  152.2098  140.9324  159.3906 C   0  0  0  0  0  0  0  0  0  0  0  0
  152.2650  142.3862  159.8018 C   0  0  0  0  0  0  0  0  0  0  0  0
  153.5301  141.5669  159.7625 C   0  0  0  0  0  0  0  0  0  0  0  0
  150.8320  140.8375  157.2732 N   0  0  0  0  0  0  0  0  0  0  0  0
  148.9151  141.0701  155.1932 C   0  0  0  0  0  0  0  0  0  0  0  0
  147.0625  141.5850  154.1946 H   0  0  0  0  0  0  0  0  0  0  0  0
  148.4581  141.5851  153.1428 H   0  0  0  0  0  0  0  0  0  0  0  0
  147.0988  139.0975  154.3150 H   0  0  0  0  0  0  0  0  0  0  0  0
  147.0562  139.6084  152.6387 H   0  0  0  0  0  0  0  0  0  0  0  0
  148.6788  137.9116  153.0058 H   0  0  0  0  0  0  0  0  0  0  0  0
  149.3390  138.2434  155.2430 H   0  0  0  0  0  0  0  0  0  0  0  0
  150.7249  138.2618  154.1686 H   0  0  0  0  0  0  0  0  0  0  0  0
  150.7077  140.7155  154.1009 H   0  0  0  0  0  0  0  0  0  0  0  0
  151.7723  140.2185  160.0855 H   0  0  0  0  0  0  0  0  0  0  0  0
  152.1319  143.1388  159.0269 H   0  0  0  0  0  0  0  0  0  0  0  0
  151.8649  142.6468  160.7794 H   0  0  0  0  0  0  0  0  0  0  0  0
  153.9741  141.2827  160.7142 H   0  0  0  0  0  0  0  0  0  0  0  0
  154.2364  141.7715  158.9602 H   0  0  0  0  0  0  0  0  0  0  0  0
  149.1879  142.0969  155.4396 H   0  0  0  0  0  0  0  0  0  0  0  0
  148.3799  140.6738  156.0574 H   0  0  0  0  0  0  0  0  0  0  0  0
  149.4028  139.2998  152.5097 H   0  0  0  0  0  0  0  0  0  0  0  0
  1 14  1  0  0  0  0
  1  2  1  0  0  0  0
  1 15  1  0  0  0  0
  1 16  1  0  0  0  0
  2  3  1  0  0  0  0
  2 17  1  0  0  0  0
  2 18  1  0  0  0  0
  3  4  1  0  0  0  0
  3 19  1  0  0  0  0
  3 30  1  0  0  0  0
  4  5  1  0  0  0  0
  4 20  1  0  0  0  0
  4 21  1  0  0  0  0
  5  6  1  0  0  0  0
  5 14  1  0  0  0  0
  5 22  1  0  0  0  0
  6 13  1  0  0  0  0
  6  7  2  0  0  0  0
  7  8  1  0  0  0  0
  8  9  1  0  0  0  0
  9 10  1  0  0  0  0
  9 13  2  0  0  0  0
 10 12  1  0  0  0  0
 10 11  1  0  0  0  0
 10 23  1  0  0  0  0
 11 12  1  0  0  0  0
 11 24  1  0  0  0  0
 11 25  1  0  0  0  0
 12 26  1  0  0  0  0
 12 27  1  0  0  0  0
 14 28  1  0  0  0  0
 14 29  1  0  0  0  0
M  CHG  1   3   1
M  END
> <s_m_source_file>
AV-unprocessed.smi

> <i_m_source_file_index>
791

> <i_lp_mmshare_version>
43012

> <i_f3d_flags>
0

> <s_epik_input>
W0NIMl0xW0NIMl1bQ0gyXVtOSF1bQ0gyXVtDQEhdMWMybm9jKG4yKVtDSF0zW0NIMl1bQ0gyXTM=

> <s_epik_cmdline>
J2VwaWtfcHl0aG9uJywgJy1waCcsICc3LjAnLCAnLXRuJywgJzgnLCAnLW1hJywgJzIwMCcsICctbWV0YWxfYmluZGluZycsICctaW1hZScsICc8aW5maWxlLm1hZT4nLCAnLW9tYWUnLCAnPG91dGZpbGUubWFlPic=

> <r_lp_tautomer_probability>
1

> <r_epik_Ionization_Penalty>
0.000532935

> <r_epik_Ionization_Penalty_Charging>
0.000532935

> <r_epik_Ionization_Penalty_Neutral>
2.72852e-13

> <r_epik_State_Penalty>
0.000332992

> <r_epik_Charging_Adjusted_Penalty>
0.000865928

> <i_epik_Tot_Q>
1

> <i_epik_Tot_abs_Q>
1

> <r_epik_Metal_State_Penalty>
-0

> <b_epik_Metal_Only>
0

> <s_lp_Force_Field>
OPLS_2005

> <r_lp_Energy>
11.8714

> <b_lp_Chiralities_Consistent>
1

> <s_lp_Variant>
AV-unprocessed.smi:791-2

> <Gold.Version>
5.8.1

> <Gold.Id.Protein>
6NUR|6NUR_protein|mol2

> <Gold.PLP.Fitness>
40.8215

> <Gold.PLP.PLP>
-28.8752

> <Gold.PLP.part.hbond>
-3.3869

> <Gold.PLP.part.metal>
0.0000

> <Gold.PLP.part.buried>
-2.3153

> <Gold.PLP.part.nonpolar>
-23.8837

> <Gold.PLP.part.repulsive>
0.1083

> <Gold.PLP.ligand.clash>
0.0000

> <Gold.PLP.ligand.torsion>
0.1153

> <Gold.PLP.Chemscore.Hbond>
4.0000

> <Gold.PLP.Chemscore.CHOScore>
0.0000

> <Gold.PLP.Chemscore.Metal>
0.0000

> <Gold.Chemscore.Hbonds>
donor molecule, donor type, donor heavy atom, donor atom, acceptor molecule, acceptor atom, score
      L1  H     3    19       P1  7948  2.00
      L1  H     3    30       P1  7957  1.00
      P1  H  7997  8008       L1     8  1.00

> <Gold.PLP.Chemscore.Internal.Correction>
0.1768

> <Gold.Rescore>
     Score         DG    S(hbond)    S(metal)    S(lipo)     H(rot)  DE(clash)    DE(int)     intcor
     18.25     -18.35       2.66        0.00      61.02       1.23       0.01       0.09       ----

> <Gold.Chemscore.Fitness>
18.2512

> <Gold.Chemscore.DG>
-18.3494

> <Gold.Chemscore.ZeroCoef>
-5.4800

> <Gold.Chemscore.Hbond>
2.6594

> <Gold.Chemscore.Metal>
0.0000

> <Gold.Chemscore.Lipo>
61.0170

> <Gold.Chemscore.Internal_Hbond>
0.0000

> <Gold.Chemscore.DEClash>
0.0098

> <Gold.Chemscore.DEInternal>
0.0884

> <Gold.Chemscore.Rot>
1.2312

> <Gold.Chemscore.Internal.Correction>
   9.000000E+99

> <Gold.Chemscore.Hbonds>
donor molecule, donor type, donor heavy atom, donor atom, acceptor molecule, acceptor atom, score
      L1  H     3    19       P1  7948  0.89
      L1  H     3    30       P1  7957  0.94
      P1  H  7997  8008       L1     8  0.25

> <Gold.Chemscore.Hbond.Weighted>
-8.8823

> <Gold.Chemscore.Metal.Weighted>
-0.0000

> <Gold.Chemscore.Lipo.Weighted>
-7.1390

> <Gold.Chemscore.Internal_Hbond.Weighted>
0.0000

> <Gold.Chemscore.DEClash.Weighted>
0.0098

> <Gold.Chemscore.DEInternal.Weighted>
0.0884

> <Gold.Chemscore.Rot.Weighted>
3.1518

> <Gold.Chemscore.Internal.Correction.Weighted>
   9.000000E+99

> <Gold.Protein.RotatedTorsions>
[ 6907 6896 6895 6894 ] final  -14.15 input  -60.11 | X-H torsion
[ 7974 7965 7964 7962 ] final  -58.85 input  175.53 | X-H torsion
[ 8008 7997 7996 7995 ] final  -76.46 input   59.86 | X-H torsion
[ 10167 10162 10161 10158 ] final  160.00 input  -65.29 | X-H torsion
[ 10718 10713 10712 10709 ] final -157.30 input   66.30 | X-H torsion
[ 10763 10752 10751 10750 ] final  -16.64 input  -60.55 | X-H torsion
[ 11005 11000 10999 10996 ] final -179.68 input  -57.11 | X-H torsion

> <Gold.Protein.ActiveResidues>
 VAL166  LYS551  ARG553  GLY616  TRP617  ASP618  TYR619  PRO620  LYS621  CYS622 
 ASP623  PHE694  ASN695  SER759  ASP760  ASP761  ALA762  ILE779  LEU786  VAL792 
 PHE793  MET794  SER795  GLU796  ALA797  LYS798  CYS799  TRP800  GLU811  SER814 

> <Gold.Protein.RotatedAtoms>
  151.3438  135.0869  159.9379 H   0  0  0  0  0  0  0  0  0  0  0  0  # atno 6907 bound_to 6896
  152.5205  133.9421  159.7641 H   0  0  0  0  0  0  0  0  0  0  0  0  # atno 6908 bound_to 6896
  150.9783  133.6219  159.2756 H   0  0  0  0  0  0  0  0  0  0  0  0  # atno 6909 bound_to 6896
  145.8344  140.8458  143.0067 H   0  0  0  0  0  0  0  0  0  0  0  0  # atno 7974 bound_to 7965
  154.5507  140.0727  156.8663 H   0  0  0  0  0  0  0  0  0  0  0  0  # atno 8008 bound_to 7997
  155.2998  140.3383  155.4230 H   0  0  0  0  0  0  0  0  0  0  0  0  # atno 8009 bound_to 7997
  156.1959  140.1703  156.7985 H   0  0  0  0  0  0  0  0  0  0  0  0  # atno 8010 bound_to 7997
  139.4836  144.4676  151.8620 H   0  0  0  0  0  0  0  0  0  0  0  0  # atno 10167 bound_to 10162
  156.5384  130.8552  151.2740 H   0  0  0  0  0  0  0  0  0  0  0  0  # atno 10718 bound_to 10713
  153.5617  135.7009  153.5544 H   0  0  0  0  0  0  0  0  0  0  0  0  # atno 10763 bound_to 10752
  153.3423  135.4017  155.1581 H   0  0  0  0  0  0  0  0  0  0  0  0  # atno 10764 bound_to 10752
  154.8647  135.3745  154.5135 H   0  0  0  0  0  0  0  0  0  0  0  0  # atno 10765 bound_to 10752
  140.4160  134.6649  157.4639 H   0  0  0  0  0  0  0  0  0  0  0  0  # atno 11005 bound_to 11000
  144.6737  140.0719  143.7472 LP  0  0  0  0  0  0  0  0  0  0  0  0  # atno 17320 bound_to 7965
  145.9535  139.2750  143.1198 LP  0  0  0  0  0  0  0  0  0  0  0  0  # atno 17321 bound_to 7965
  140.4143  144.2328  150.5888 LP  0  0  0  0  0  0  0  0  0  0  0  0  # atno 17342 bound_to 10162
  140.4936  143.2339  151.8782 LP  0  0  0  0  0  0  0  0  0  0  0  0  # atno 17343 bound_to 10162
  157.7410  130.9860  150.2413 LP  0  0  0  0  0  0  0  0  0  0  0  0  # atno 17370 bound_to 10713
  156.2995  130.3756  149.7764 LP  0  0  0  0  0  0  0  0  0  0  0  0  # atno 17371 bound_to 10713
  140.0234  134.6514  155.9208 LP  0  0  0  0  0  0  0  0  0  0  0  0  # atno 17394 bound_to 11000
  141.1803  133.6545  156.4992 LP  0  0  0  0  0  0  0  0  0  0  0  0  # atno 17395 bound_to 11000

$$$$
