#       Name:                AV-unprocessed.smi:159
#       Creating user name   scv26
#       Creation time:       Thu Mar 26 19:04:03 2020


#       File generated by GOLD software.
#

@<TRIPOS>MOLECULE
AV-unprocessed.smi:159
    35    36     1
SMALL
NO_CHARGES


@<TRIPOS>ATOM
      1 ****        -4.8035  -0.5307  -0.2352 N.pl3          1 S1                 0.0000
      2 ****        -3.4675  -0.6138  -0.3072 C.2            1 S1                 0.0000
      3 ****        -2.6449   0.5206   0.0480 C.2            1 S1                 0.0000
      4 ****        -1.3072   0.3601  -0.0553 C.2            1 S1                 0.0000
      5 ****        -0.7358  -0.8278  -0.4900 N.am           1 S1                 0.0000
      6 ****         0.7656  -0.9802  -0.5911 C.3            1 S1                 0.0000
      7 ****         1.3546  -1.3938   0.7625 C.3            1 S1                 0.0000
      8 ****         1.9631  -0.0966   1.2518 C.3            1 S1                 0.0000
      9 ****         2.3941   0.5642  -0.0559 C.3            1 S1                 0.0000
     10 ****         2.5719   2.0852   0.0584 C.3            1 S1                 0.0000
     11 ****         3.3507   2.5638  -1.0171 O.3            1 S1                 0.0000
     12 ****         1.3219   0.2539  -0.9401 O.3            1 S1                 0.0000
     13 ****        -1.5672  -1.9286  -0.8096 C.2            1 S1                 0.0000
     14 ****        -1.1052  -3.0136  -1.1610 O.2            1 S1                 0.0000
     15 ****        -2.9201  -1.7466  -0.7028 N.2            1 S1                 0.0000
     16 ****         0.9676  -1.6943  -1.3912 H              1 S1                 0.0000
     17 ****         3.3087   0.0862  -0.4120 H              1 S1                 0.0000
     18 ****        -5.3754  -1.3256  -0.4811 H              1 S1                 0.0000
     19 ****        -5.2357   0.3293   0.0707 H              1 S1                 0.0000
     20 ****        -3.0474   1.4657   0.3834 H              1 S1                 0.0000
     21 ****        -0.6783   1.1958   0.2145 H              1 S1                 0.0000
     22 ****         0.6026  -1.8102   1.4341 H              1 S1                 0.0000
     23 ****         2.1296  -2.1420   0.5915 H              1 S1                 0.0000
     24 ****         1.2055   0.5054   1.7554 H              1 S1                 0.0000
     25 ****         2.7917  -0.2497   1.9435 H              1 S1                 0.0000
     26 ****         1.6096   2.5969   0.0898 H              1 S1                 0.0000
     27 ****         3.1009   2.3321   0.9794 H              1 S1                 0.0000
     28 ****         3.4516   3.4987  -0.9228 H              1 S1                 0.0000
     29 ****         2.8923   2.3598  -1.8821 LP             1 S1                 0.0000
     30 ****         4.2491   2.1248  -1.0042 LP             1 S1                 0.0000
     31 ****         0.6213   0.9646  -0.8753 LP             1 S1                 0.0000
     32 ****         1.6664   0.2100  -1.8778 LP             1 S1                 0.0000
     33 ****        -0.1152  -3.1374  -1.2277 LP             1 S1                 0.0000
     34 ****        -1.7198  -3.7714  -1.3798 LP             1 S1                 0.0000
     35 ****        -3.5225  -2.5099  -0.9361 LP             1 S1                 0.0000
@<TRIPOS>BOND
    1    1    2 1     
    2    1   18 1     
    3    1   19 1     
    4    2   15 2     
    5    2    3 1     
    6    3    4 2     
    7    3   20 1     
    8    4    5 1     
    9    4   21 1     
   10    5    6 1     
   11    5   13 am    
   12    6   16 1     
   13    6   12 1     
   14    6    7 1     
   15    7    8 1     
   16    7   22 1     
   17    7   23 1     
   18    8    9 1     
   19    8   24 1     
   20    8   25 1     
   21    9   17 1     
   22    9   10 1     
   23    9   12 1     
   24   10   11 1     
   25   10   26 1     
   26   10   27 1     
   27   11   28 1     
   28   13   14 2     
   29   13   15 1     
   30   11   29 1     
   31   11   30 1     
   32   12   31 1     
   33   12   32 1     
   34   14   33 1     
   35   14   34 1     
   36   15   35 1     
@<TRIPOS>SUBSTRUCTURE
      1 S1             1
@<TRIPOS>SET
LONE_PAIRS      STATIC     ATOMS    <user>   **** ""
7 29 30 31 32 33 34 35
DONOR_HYDROGENS      STATIC     ATOMS    <user>   **** ""
3 18 19 28
ATOM$BLUE        STATIC     ATOMS    COLORGROUP SYSTEM
7 29 30 31 32 33 34 35
ATOM$RED        STATIC     ATOMS    COLORGROUP SYSTEM
3 18 19 28
