AV-unprocessed.smi:1697|AV-procd|sdf|6812|dock5
  -GOLD-   22720 7593D 1   1.00000     0.00000
 Structure written by MMmdl.
 53 55  0  0  0  0  0  0  0  0  1 V2000
  144.3475  134.6879  163.0879 C   0  0  0  0  0  0  0  0  0  0  0  0
  145.0547  133.4596  162.4983 C   0  0  0  0  0  0  0  0  0  0  0  0
  146.4159  133.7285  162.1878 O   0  0  0  0  0  0  0  0  0  0  0  0
  146.6266  134.7488  161.2188 C   0  0  0  0  0  0  0  0  0  0  0  0
  147.4050  134.1707  160.0261 C   0  0  0  0  0  0  0  0  0  0  0  0
  147.7970  135.2926  159.0499 C   0  0  0  0  0  0  0  0  0  0  0  0
  148.5944  136.3438  159.6855 N   0  0  0  0  0  0  0  0  0  0  0  0
  148.9933  137.3504  158.6986 C   0  0  0  0  0  0  0  0  0  0  0  0
  150.3679  138.0096  158.9324 C   0  0  1  0  0  0  0  0  0  0  0  0
  151.1702  137.1147  159.6776 O   0  0  0  0  0  0  0  0  0  0  0  0
  151.0714  138.3327  157.6006 C   0  0  0  0  0  0  0  0  0  0  0  0
  150.8406  139.6987  157.1648 N   0  0  0  0  0  0  0  0  0  0  0  0
  150.1947  140.0932  156.0509 C   0  0  0  0  0  0  0  0  0  0  0  0
  150.0961  141.4015  155.8343 N   0  0  0  0  0  0  0  0  0  0  0  0
  150.7557  141.9164  156.9371 C   0  0  0  0  0  0  0  0  0  0  0  0
  151.0076  143.2545  157.3112 C   0  0  0  0  0  0  0  0  0  0  0  0
  151.7139  143.5546  158.4977 C   0  0  0  0  0  0  0  0  0  0  0  0
  151.9646  145.0078  158.8599 C   0  0  0  0  0  0  0  0  0  0  0  0
  152.1789  142.5066  159.3323 C   0  0  0  0  0  0  0  0  0  0  0  0
  152.9403  142.8053  160.6115 C   0  0  0  0  0  0  0  0  0  0  0  0
  151.9348  141.1642  158.9739 C   0  0  0  0  0  0  0  0  0  0  0  0
  151.2331  140.8779  157.7894 C   0  0  0  0  0  0  0  0  0  0  0  0
  147.8409  136.9249  160.8029 C   0  0  0  0  0  0  0  0  0  0  0  0
  147.4454  135.8791  161.8597 C   0  0  0  0  0  0  0  0  0  0  0  0
  143.2885  134.4835  163.2466 H   0  0  0  0  0  0  0  0  0  0  0  0
  144.4249  135.5426  162.4154 H   0  0  0  0  0  0  0  0  0  0  0  0
  144.7727  134.9762  164.0491 H   0  0  0  0  0  0  0  0  0  0  0  0
  144.9753  132.6008  163.1664 H   0  0  0  0  0  0  0  0  0  0  0  0
  144.5560  133.1760  161.5713 H   0  0  0  0  0  0  0  0  0  0  0  0
  145.6829  135.1668  160.8616 H   0  0  0  0  0  0  0  0  0  0  0  0
  148.3044  133.6647  160.3799 H   0  0  0  0  0  0  0  0  0  0  0  0
  146.8073  133.4185  159.5110 H   0  0  0  0  0  0  0  0  0  0  0  0
  148.3598  134.8541  158.2247 H   0  0  0  0  0  0  0  0  0  0  0  0
  146.8956  135.7244  158.6120 H   0  0  0  0  0  0  0  0  0  0  0  0
  149.0038  136.9009  157.7043 H   0  0  0  0  0  0  0  0  0  0  0  0
  148.2266  138.1259  158.6593 H   0  0  0  0  0  0  0  0  0  0  0  0
  150.2680  138.9345  159.4984 H   0  0  0  0  0  0  0  0  0  0  0  0
  151.9068  137.5948  160.0244 H   0  0  0  0  0  0  0  0  0  0  0  0
  152.1461  138.1659  157.6834 H   0  0  0  0  0  0  0  0  0  0  0  0
  150.7136  137.6639  156.8166 H   0  0  0  0  0  0  0  0  0  0  0  0
  149.7725  139.3782  155.3597 H   0  0  0  0  0  0  0  0  0  0  0  0
  150.6529  144.0521  156.6752 H   0  0  0  0  0  0  0  0  0  0  0  0
  153.0347  145.2067  158.9218 H   0  0  0  0  0  0  0  0  0  0  0  0
  151.5109  145.2454  159.8223 H   0  0  0  0  0  0  0  0  0  0  0  0
  151.5416  145.6826  158.1150 H   0  0  0  0  0  0  0  0  0  0  0  0
  153.2202  141.8885  161.1311 H   0  0  0  0  0  0  0  0  0  0  0  0
  152.3295  143.4011  161.2899 H   0  0  0  0  0  0  0  0  0  0  0  0
  153.8541  143.3574  160.3915 H   0  0  0  0  0  0  0  0  0  0  0  0
  152.2806  140.3561  159.6015 H   0  0  0  0  0  0  0  0  0  0  0  0
  148.4289  137.6947  161.2996 H   0  0  0  0  0  0  0  0  0  0  0  0
  146.9428  137.4175  160.4271 H   0  0  0  0  0  0  0  0  0  0  0  0
  146.8717  136.3506  162.6582 H   0  0  0  0  0  0  0  0  0  0  0  0
  148.3451  135.4699  162.3216 H   0  0  0  0  0  0  0  0  0  0  0  0
  1  2  1  0  0  0  0
  1 25  1  0  0  0  0
  1 26  1  0  0  0  0
  1 27  1  0  0  0  0
  2  3  1  0  0  0  0
  2 28  1  0  0  0  0
  2 29  1  0  0  0  0
  3  4  1  0  0  0  0
  4 24  1  0  0  0  0
  4  5  1  0  0  0  0
  4 30  1  0  0  0  0
  5  6  1  0  0  0  0
  5 31  1  0  0  0  0
  5 32  1  0  0  0  0
  6  7  1  0  0  0  0
  6 33  1  0  0  0  0
  6 34  1  0  0  0  0
  7  8  1  0  0  0  0
  7 23  1  0  0  0  0
  8  9  1  0  0  0  0
  8 35  1  0  0  0  0
  8 36  1  0  0  0  0
  9 10  1  0  0  0  0
  9 11  1  0  0  0  0
  9 37  1  0  0  0  0
 10 38  1  0  0  0  0
 11 12  1  0  0  0  0
 11 39  1  0  0  0  0
 11 40  1  0  0  0  0
 12 22  1  0  0  0  0
 12 13  1  0  0  0  0
 13 14  2  0  0  0  0
 13 41  1  0  0  0  0
 14 15  1  0  0  0  0
 15 22  2  0  0  0  0
 15 16  1  0  0  0  0
 16 17  2  0  0  0  0
 16 42  1  0  0  0  0
 17 18  1  0  0  0  0
 17 19  1  0  0  0  0
 18 43  1  0  0  0  0
 18 44  1  0  0  0  0
 18 45  1  0  0  0  0
 19 20  1  0  0  0  0
 19 21  2  0  0  0  0
 20 46  1  0  0  0  0
 20 47  1  0  0  0  0
 20 48  1  0  0  0  0
 21 22  1  0  0  0  0
 21 49  1  0  0  0  0
 23 24  1  0  0  0  0
 23 50  1  0  0  0  0
 23 51  1  0  0  0  0
 24 52  1  0  0  0  0
 24 53  1  0  0  0  0
M  END
> <s_m_source_file>
AV-unprocessed.smi

> <i_m_source_file_index>
1697

> <i_lp_mmshare_version>
43012

> <i_f3d_flags>
0

> <s_epik_input>
W0NIM11bQ0gyXU9bQ0hdMVtDSDJdW0NIMl1OKFtDSDJdW0NIMl0xKVtDSDJdW0NASF0oW09IXSlbQ0gyXW4oW2NIXW4yKWMoYzIzKVtjSF1jKFtDSDNdKWMoW2NIXTMpW0NIM10=

> <s_epik_cmdline>
J2VwaWtfcHl0aG9uJywgJy1waCcsICc3LjAnLCAnLXRuJywgJzgnLCAnLW1hJywgJzIwMCcsICctbWV0YWxfYmluZGluZycsICctaW1hZScsICc8aW5maWxlLm1hZT4nLCAnLW9tYWUnLCAnPG91dGZpbGUubWFlPic=

> <r_epik_Ionization_Penalty>
1.9836

> <r_epik_Ionization_Penalty_Charging>
0

> <r_epik_Ionization_Penalty_Neutral>
1.9836

> <r_epik_State_Penalty>
2.07269

> <r_epik_Charging_Adjusted_Penalty>
2.07269

> <i_epik_Tot_Q>
0

> <i_epik_Tot_abs_Q>
0

> <r_epik_Metal_State_Penalty>
2.00215

> <b_epik_Metal_Only>
0

> <s_lp_Force_Field>
OPLS_2005

> <r_lp_Energy>
35.1996

> <b_lp_Chiralities_Consistent>
1

> <s_lp_Variant>
AV-unprocessed.smi:1697-10

> <Gold.Version>
5.8.1

> <Gold.Id.Protein>
6NUR|6NUR_protein|mol2

> <Gold.PLP.Fitness>
47.2451

> <Gold.PLP.PLP>
-48.3081

> <Gold.PLP.part.hbond>
-1.4613

> <Gold.PLP.part.metal>
0.0000

> <Gold.PLP.part.buried>
-6.3780

> <Gold.PLP.part.nonpolar>
-41.2968

> <Gold.PLP.part.repulsive>
0.0655

> <Gold.PLP.ligand.clash>
0.0000

> <Gold.PLP.ligand.torsion>
2.1049

> <Gold.PLP.Chemscore.Hbond>
1.0000

> <Gold.PLP.Chemscore.CHOScore>
0.0000

> <Gold.PLP.Chemscore.Metal>
0.0000

> <Gold.Chemscore.Hbonds>
donor molecule, donor type, donor heavy atom, donor atom, acceptor molecule, acceptor atom, score
      P1  H  6896  6908       L1    10  1.00

> <Gold.PLP.Chemscore.Internal.Correction>
0.1467

> <Gold.Rescore>
     Score         DG    S(hbond)    S(metal)    S(lipo)     H(rot)  DE(clash)    DE(int)     intcor
     17.19     -19.58       0.99        0.00     140.17       2.19       0.19       2.20       ----

> <Gold.Chemscore.Fitness>
17.1902

> <Gold.Chemscore.DG>
-19.5847

> <Gold.Chemscore.ZeroCoef>
-5.4800

> <Gold.Chemscore.Hbond>
0.9948

> <Gold.Chemscore.Metal>
0.0000

> <Gold.Chemscore.Lipo>
140.1655

> <Gold.Chemscore.Internal_Hbond>
0.0000

> <Gold.Chemscore.DEClash>
0.1898

> <Gold.Chemscore.DEInternal>
2.2047

> <Gold.Chemscore.Rot>
2.1943

> <Gold.Chemscore.Internal.Correction>
   9.000000E+99

> <Gold.Chemscore.Hbonds>
donor molecule, donor type, donor heavy atom, donor atom, acceptor molecule, acceptor atom, score
      P1  H  6896  6908       L1    10  0.72

> <Gold.Chemscore.Hbond.Weighted>
-3.3228

> <Gold.Chemscore.Metal.Weighted>
-0.0000

> <Gold.Chemscore.Lipo.Weighted>
-16.3994

> <Gold.Chemscore.Internal_Hbond.Weighted>
0.0000

> <Gold.Chemscore.DEClash.Weighted>
0.1898

> <Gold.Chemscore.DEInternal.Weighted>
2.2047

> <Gold.Chemscore.Rot.Weighted>
5.6174

> <Gold.Chemscore.Internal.Correction.Weighted>
   9.000000E+99

> <Gold.Protein.RotatedTorsions>
[ 6907 6896 6895 6894 ] final -127.51 input  -60.11 | X-H torsion
[ 7974 7965 7964 7962 ] final  164.99 input  175.53 | X-H torsion
[ 8008 7997 7996 7995 ] final -162.72 input   59.86 | X-H torsion
[ 10167 10162 10161 10158 ] final   39.31 input  -65.29 | X-H torsion
[ 10718 10713 10712 10709 ] final  125.64 input   66.30 | X-H torsion
[ 10763 10752 10751 10750 ] final -142.35 input  -60.55 | X-H torsion
[ 11005 11000 10999 10996 ] final -129.44 input  -57.11 | X-H torsion

> <Gold.Protein.ActiveResidues>
 VAL166  LYS551  ARG553  GLY616  TRP617  ASP618  TYR619  PRO620  LYS621  CYS622 
 ASP623  PHE694  ASN695  SER759  ASP760  ASP761  ALA762  ILE779  LEU786  VAL792 
 PHE793  MET794  SER795  GLU796  ALA797  LYS798  CYS799  TRP800  GLU811  SER814 

> <Gold.Protein.RotatedAtoms>
  150.9080  133.7033  159.2861 H   0  0  0  0  0  0  0  0  0  0  0  0  # atno 6907 bound_to 6896
  151.4529  135.1030  159.9712 H   0  0  0  0  0  0  0  0  0  0  0  0  # atno 6908 bound_to 6896
  152.4914  133.8462  159.7233 H   0  0  0  0  0  0  0  0  0  0  0  0  # atno 6909 bound_to 6896
  144.7522  139.8405  143.6362 H   0  0  0  0  0  0  0  0  0  0  0  0  # atno 7974 bound_to 7965
  155.8109  140.0905  157.1904 H   0  0  0  0  0  0  0  0  0  0  0  0  # atno 8008 bound_to 7997
  154.3980  140.1455  156.3444 H   0  0  0  0  0  0  0  0  0  0  0  0  # atno 8009 bound_to 7997
  155.8366  140.3440  155.5608 H   0  0  0  0  0  0  0  0  0  0  0  0  # atno 8010 bound_to 7997
  140.3852  144.1926  150.6130 H   0  0  0  0  0  0  0  0  0  0  0  0  # atno 10167 bound_to 10162
  157.5486  131.1095  150.8740 H   0  0  0  0  0  0  0  0  0  0  0  0  # atno 10718 bound_to 10713
  154.8512  135.3498  154.6014 H   0  0  0  0  0  0  0  0  0  0  0  0  # atno 10763 bound_to 10752
  153.6622  135.6989  153.5178 H   0  0  0  0  0  0  0  0  0  0  0  0  # atno 10764 bound_to 10752
  153.2808  135.4264  155.1034 H   0  0  0  0  0  0  0  0  0  0  0  0  # atno 10765 bound_to 10752
  140.9432  134.1166  157.4132 H   0  0  0  0  0  0  0  0  0  0  0  0  # atno 11005 bound_to 11000
  146.1486  139.4562  143.0063 LP  0  0  0  0  0  0  0  0  0  0  0  0  # atno 17320 bound_to 7965
  145.6905  141.0165  143.1557 LP  0  0  0  0  0  0  0  0  0  0  0  0  # atno 17321 bound_to 7965
  140.4896  143.2351  151.8837 LP  0  0  0  0  0  0  0  0  0  0  0  0  # atno 17342 bound_to 10162
  139.4792  144.5180  151.8841 LP  0  0  0  0  0  0  0  0  0  0  0  0  # atno 17343 bound_to 10162
  156.9272  130.5336  149.5279 LP  0  0  0  0  0  0  0  0  0  0  0  0  # atno 17370 bound_to 10713
  156.0557  130.5619  150.9085 LP  0  0  0  0  0  0  0  0  0  0  0  0  # atno 17371 bound_to 10713
  139.8826  135.0043  156.6240 LP  0  0  0  0  0  0  0  0  0  0  0  0  # atno 17394 bound_to 11000
  140.7706  133.8742  155.8489 LP  0  0  0  0  0  0  0  0  0  0  0  0  # atno 17395 bound_to 11000

$$$$
