AV-unprocessed.smi:2492|AV-procd|sdf|9811|dock6
  -GOLD-   2272013443D 1   1.00000     0.00000
 Structure written by MMmdl.
 33 34  0  0  0  0  0  0  0  0  1 V2000
  153.4034  142.5443  162.0910 C   0  0  0  0  0  0  0  0  0  0  0  0
  153.3884  141.8309  160.4252 S   0  0  0  0  0  0  0  0  0  0  0  0
  152.2341  142.9643  159.6006 C   0  0  2  0  0  0  0  0  0  0  0  0
  152.9490  143.9937  158.7293 C   0  0  0  0  0  0  0  0  0  0  0  0
  151.9215  145.1113  158.5450 C   0  0  0  0  0  0  0  0  0  0  0  0
  151.0508  145.1011  159.8162 C   0  0  1  0  0  0  0  0  0  0  0  0
  149.6297  145.1087  159.4738 N   0  0  0  0  0  0  0  0  0  0  0  0
  148.6252  144.7550  160.2888 C   0  0  0  0  0  0  0  0  0  0  0  0
  148.7870  144.3698  161.4470 O   0  0  0  0  0  0  0  0  0  0  0  0
  147.4365  144.8760  159.6740 N   0  0  0  0  0  0  0  0  0  0  0  0
  146.1504  144.6312  160.2184 C   0  0  0  0  0  0  0  0  0  0  0  0
  145.8800  144.0477  161.3862 N   0  0  0  0  0  0  0  0  0  0  0  0
  144.5195  144.0898  161.3851 C   0  0  0  0  0  0  0  0  0  0  0  0
  143.6986  143.5494  162.5058 C   0  0  0  0  0  0  0  0  0  0  0  0
  143.9558  144.6465  160.3188 N   0  0  0  0  0  0  0  0  0  0  0  0
  145.0529  145.0155  159.5261 O   0  0  0  0  0  0  0  0  0  0  0  0
  151.4209  143.8164  160.5800 C   0  0  0  0  0  0  0  0  0  0  0  0
  154.0479  141.9557  162.7439 H   0  0  0  0  0  0  0  0  0  0  0  0
  152.3980  142.5498  162.5121 H   0  0  0  0  0  0  0  0  0  0  0  0
  153.7788  143.5674  162.0684 H   0  0  0  0  0  0  0  0  0  0  0  0
  151.5549  142.3848  158.9734 H   0  0  0  0  0  0  0  0  0  0  0  0
  153.8219  144.3857  159.2537 H   0  0  0  0  0  0  0  0  0  0  0  0
  153.2893  143.5774  157.7806 H   0  0  0  0  0  0  0  0  0  0  0  0
  152.3982  146.0784  158.3814 H   0  0  0  0  0  0  0  0  0  0  0  0
  151.3183  144.8967  157.6613 H   0  0  0  0  0  0  0  0  0  0  0  0
  151.3094  145.9630  160.4343 H   0  0  0  0  0  0  0  0  0  0  0  0
  149.3949  145.4099  158.5394 H   0  0  0  0  0  0  0  0  0  0  0  0
  147.4503  145.1901  158.7150 H   0  0  0  0  0  0  0  0  0  0  0  0
  142.6334  143.6657  162.3021 H   0  0  0  0  0  0  0  0  0  0  0  0
  143.9323  144.0765  163.4311 H   0  0  0  0  0  0  0  0  0  0  0  0
  143.9086  142.4892  162.6487 H   0  0  0  0  0  0  0  0  0  0  0  0
  150.5527  143.2811  160.9670 H   0  0  0  0  0  0  0  0  0  0  0  0
  152.0393  144.0810  161.4391 H   0  0  0  0  0  0  0  0  0  0  0  0
  1  2  1  0  0  0  0
  1 18  1  0  0  0  0
  1 19  1  0  0  0  0
  1 20  1  0  0  0  0
  2  3  1  0  0  0  0
  3 17  1  0  0  0  0
  3  4  1  0  0  0  0
  3 21  1  0  0  0  0
  4  5  1  0  0  0  0
  4 22  1  0  0  0  0
  4 23  1  0  0  0  0
  5  6  1  0  0  0  0
  5 24  1  0  0  0  0
  5 25  1  0  0  0  0
  6  7  1  0  0  0  0
  6 17  1  0  0  0  0
  6 26  1  0  0  0  0
  7  8  1  0  0  0  0
  7 27  1  0  0  0  0
  8  9  2  0  0  0  0
  8 10  1  0  0  0  0
 10 11  1  0  0  0  0
 10 28  1  0  0  0  0
 11 16  1  0  0  0  0
 11 12  2  0  0  0  0
 12 13  1  0  0  0  0
 13 14  1  0  0  0  0
 13 15  2  0  0  0  0
 14 29  1  0  0  0  0
 14 30  1  0  0  0  0
 14 31  1  0  0  0  0
 15 16  1  0  0  0  0
 17 32  1  0  0  0  0
 17 33  1  0  0  0  0
M  END
> <s_m_source_file>
AV-unprocessed.smi

> <i_m_source_file_index>
2492

> <i_lp_mmshare_version>
43012

> <i_f3d_flags>
0

> <s_epik_input>
W0NIM11TW0NAQEhdMVtDSDJdW0NIMl1bQ0BIXShbQ0gyXTEpW05IXUMoPU8pW05IXWMybmMoW0NIM10pbm8y

> <s_epik_cmdline>
J2VwaWtfcHl0aG9uJywgJy1waCcsICc3LjAnLCAnLXRuJywgJzgnLCAnLW1hJywgJzIwMCcsICctbWV0YWxfYmluZGluZycsICctaW1hZScsICc8aW5maWxlLm1hZT4nLCAnLW9tYWUnLCAnPG91dGZpbGUubWFlPic=

> <r_lp_tautomer_probability>
1

> <r_epik_Ionization_Penalty>
3.56659e-05

> <r_epik_Ionization_Penalty_Charging>
0

> <r_epik_Ionization_Penalty_Neutral>
3.56659e-05

> <r_epik_State_Penalty>
-0

> <r_epik_Charging_Adjusted_Penalty>
0

> <i_epik_Tot_Q>
0

> <i_epik_Tot_abs_Q>
0

> <r_epik_Metal_State_Penalty>
0.0146047

> <b_epik_Metal_Only>
0

> <s_lp_Force_Field>
OPLS_2005

> <r_lp_Energy>
14.5779

> <b_lp_Chiralities_Consistent>
1

> <s_lp_Variant>
AV-unprocessed.smi:2492-1

> <Gold.Version>
5.8.1

> <Gold.Id.Protein>
6NUR|6NUR_protein|mol2

> <Gold.PLP.Fitness>
47.3844

> <Gold.PLP.PLP>
-41.2572

> <Gold.PLP.part.hbond>
-3.0000

> <Gold.PLP.part.metal>
0.0000

> <Gold.PLP.part.buried>
-7.3944

> <Gold.PLP.part.nonpolar>
-32.4563

> <Gold.PLP.part.repulsive>
0.8200

> <Gold.PLP.ligand.clash>
0.0000

> <Gold.PLP.ligand.torsion>
0.8749

> <Gold.PLP.Chemscore.Hbond>
2.6239

> <Gold.PLP.Chemscore.CHOScore>
0.0000

> <Gold.PLP.Chemscore.Metal>
0.0000

> <Gold.Chemscore.Hbonds>
donor molecule, donor type, donor heavy atom, donor atom, acceptor molecule, acceptor atom, score
      L1  H     7    27       P1  8029  0.93
      L1  H    10    28       P1  8029  1.00
      P1  H  6933  6944       L1     9  0.69

> <Gold.PLP.Chemscore.Internal.Correction>
0.0053

> <Gold.Rescore>
     Score         DG    S(hbond)    S(metal)    S(lipo)     H(rot)  DE(clash)    DE(int)     intcor
     18.60     -21.73       2.76        0.00      88.02       1.28       0.04       3.09       ----

> <Gold.Chemscore.Fitness>
18.6008

> <Gold.Chemscore.DG>
-21.7284

> <Gold.Chemscore.ZeroCoef>
-5.4800

> <Gold.Chemscore.Hbond>
2.7637

> <Gold.Chemscore.Metal>
0.0000

> <Gold.Chemscore.Lipo>
88.0205

> <Gold.Chemscore.Internal_Hbond>
0.0000

> <Gold.Chemscore.DEClash>
0.0351

> <Gold.Chemscore.DEInternal>
3.0925

> <Gold.Chemscore.Rot>
1.2815

> <Gold.Chemscore.Internal.Correction>
   9.000000E+99

> <Gold.Chemscore.Hbonds>
donor molecule, donor type, donor heavy atom, donor atom, acceptor molecule, acceptor atom, score
      L1  H     7    27       P1  8029  0.76
      L1  H    10    28       P1  8029  1.00
      P1  H  6933  6944       L1     9  0.43

> <Gold.Chemscore.Hbond.Weighted>
-9.2308

> <Gold.Chemscore.Metal.Weighted>
-0.0000

> <Gold.Chemscore.Lipo.Weighted>
-10.2984

> <Gold.Chemscore.Internal_Hbond.Weighted>
0.0000

> <Gold.Chemscore.DEClash.Weighted>
0.0351

> <Gold.Chemscore.DEInternal.Weighted>
3.0925

> <Gold.Chemscore.Rot.Weighted>
3.2808

> <Gold.Chemscore.Internal.Correction.Weighted>
   9.000000E+99

> <Gold.Protein.RotatedTorsions>
[ 6907 6896 6895 6894 ] final   44.84 input  -60.11 | X-H torsion
[ 7974 7965 7964 7962 ] final  114.20 input  175.53 | X-H torsion
[ 8008 7997 7996 7995 ] final -129.05 input   59.86 | X-H torsion
[ 10167 10162 10161 10158 ] final -161.20 input  -65.29 | X-H torsion
[ 10718 10713 10712 10709 ] final  164.46 input   66.30 | X-H torsion
[ 10763 10752 10751 10750 ] final  -49.50 input  -60.55 | X-H torsion
[ 11005 11000 10999 10996 ] final  -79.49 input  -57.11 | X-H torsion

> <Gold.Protein.ActiveResidues>
 VAL166  LYS551  ARG553  GLY616  TRP617  ASP618  TYR619  PRO620  LYS621  CYS622 
 ASP623  PHE694  ASN695  SER759  ASP760  ASP761  ALA762  ILE779  LEU786  VAL792 
 PHE793  MET794  SER795  GLU796  ALA797  LYS798  CYS799  TRP800  GLU811  SER814 

> <Gold.Protein.RotatedAtoms>
  152.2374  134.8262  160.0464 H   0  0  0  0  0  0  0  0  0  0  0  0  # atno 6907 bound_to 6896
  151.8989  133.3528  159.3832 H   0  0  0  0  0  0  0  0  0  0  0  0  # atno 6908 bound_to 6896
  150.7043  134.4774  159.5498 H   0  0  0  0  0  0  0  0  0  0  0  0  # atno 6909 bound_to 6896
  145.2074  139.2923  143.4286 H   0  0  0  0  0  0  0  0  0  0  0  0  # atno 7974 bound_to 7965
  155.2729  140.0441  157.3008 H   0  0  0  0  0  0  0  0  0  0  0  0  # atno 8008 bound_to 7997
  154.5643  140.2355  155.8256 H   0  0  0  0  0  0  0  0  0  0  0  0  # atno 8009 bound_to 7997
  156.2072  140.3009  155.9661 H   0  0  0  0  0  0  0  0  0  0  0  0  # atno 8010 bound_to 7997
  139.6483  144.0131  152.2143 H   0  0  0  0  0  0  0  0  0  0  0  0  # atno 10167 bound_to 10162
  157.0940  131.0425  151.2525 H   0  0  0  0  0  0  0  0  0  0  0  0  # atno 10718 bound_to 10713
  154.0951  135.6571  153.4859 H   0  0  0  0  0  0  0  0  0  0  0  0  # atno 10763 bound_to 10752
  153.0308  135.5212  154.7342 H   0  0  0  0  0  0  0  0  0  0  0  0  # atno 10764 bound_to 10752
  154.6477  135.2997  154.9994 H   0  0  0  0  0  0  0  0  0  0  0  0  # atno 10765 bound_to 10752
  141.1667  133.7108  156.8130 H   0  0  0  0  0  0  0  0  0  0  0  0  # atno 11005 bound_to 11000
  146.3405  140.2339  142.8594 LP  0  0  0  0  0  0  0  0  0  0  0  0  # atno 17320 bound_to 7965
  144.9889  140.8528  143.5352 LP  0  0  0  0  0  0  0  0  0  0  0  0  # atno 17321 bound_to 7965
  139.9839  144.6409  150.7876 LP  0  0  0  0  0  0  0  0  0  0  0  0  # atno 17342 bound_to 10162
  140.7525  143.2992  151.3125 LP  0  0  0  0  0  0  0  0  0  0  0  0  # atno 17343 bound_to 10162
  157.4697  130.7701  149.7312 LP  0  0  0  0  0  0  0  0  0  0  0  0  # atno 17370 bound_to 10713
  155.9890  130.3954  150.3090 LP  0  0  0  0  0  0  0  0  0  0  0  0  # atno 17371 bound_to 10713
  140.2174  134.8782  157.3340 LP  0  0  0  0  0  0  0  0  0  0  0  0  # atno 17394 bound_to 11000
  140.2023  134.4239  155.7656 LP  0  0  0  0  0  0  0  0  0  0  0  0  # atno 17395 bound_to 11000

$$$$
