AV-unprocessed.smi:2041|AV-procd|sdf|8291|dock1
  -GOLD-   2272010553D 1   1.00000     0.00000
 Structure written by MMmdl.
 31 32  0  0  0  0  0  0  0  0  1 V2000
  150.1733  140.6769  157.2904 O   0  0  0  0  0  0  0  0  0  0  0  0
  149.9784  141.8059  156.8390 C   0  0  0  0  0  0  0  0  0  0  0  0
  150.4660  142.9463  157.3582 N   0  0  0  0  0  0  0  0  0  0  0  0
  151.2859  143.1085  158.5056 C   0  0  0  0  0  0  0  0  0  0  0  0
  152.0637  142.1485  159.0199 N   0  0  0  0  0  0  0  0  0  0  0  0
  152.7605  142.5870  160.1489 C   0  0  0  0  0  0  0  0  0  0  0  0
  152.4989  143.8925  160.4827 C   0  0  0  0  0  0  0  0  0  0  0  0
  151.3611  144.6282  159.3854 S   0  0  0  0  0  0  0  0  0  0  0  0
  149.2361  142.0493  155.7488 N   0  0  0  0  0  0  0  0  0  0  0  0
  148.5726  141.0392  154.9226 C   0  0  1  0  0  0  0  0  0  0  0  0
  147.7825  141.7200  153.7823 C   0  0  0  0  0  0  0  0  0  0  0  0
  146.6464  140.8588  153.2075 C   0  0  0  0  0  0  0  0  0  0  0  0
  147.1015  139.5536  152.5380 C   0  0  0  0  0  0  0  0  0  0  0  0
  147.7408  138.5505  153.5133 C   0  0  0  0  0  0  0  0  0  0  0  0
  149.1268  138.8779  153.8242 N   0  0  0  0  0  0  0  0  0  0  0  0
  149.5810  139.9769  154.4459 C   0  0  0  0  0  0  0  0  0  0  0  0
  150.7879  140.1381  154.6262 O   0  0  0  0  0  0  0  0  0  0  0  0
  150.2203  143.7990  156.8773 H   0  0  0  0  0  0  0  0  0  0  0  0
  153.4237  141.9013  160.6553 H   0  0  0  0  0  0  0  0  0  0  0  0
  152.9056  144.4634  161.3041 H   0  0  0  0  0  0  0  0  0  0  0  0
  149.1354  143.0076  155.4469 H   0  0  0  0  0  0  0  0  0  0  0  0
  147.8649  140.5173  155.5697 H   0  0  0  0  0  0  0  0  0  0  0  0
  147.3322  142.6429  154.1506 H   0  0  0  0  0  0  0  0  0  0  0  0
  148.4620  142.0239  152.9846 H   0  0  0  0  0  0  0  0  0  0  0  0
  145.9280  140.6323  153.9966 H   0  0  0  0  0  0  0  0  0  0  0  0
  146.1018  141.4524  152.4727 H   0  0  0  0  0  0  0  0  0  0  0  0
  146.2255  139.0839  152.0896 H   0  0  0  0  0  0  0  0  0  0  0  0
  147.7811  139.7668  151.7118 H   0  0  0  0  0  0  0  0  0  0  0  0
  147.1554  138.4621  154.4297 H   0  0  0  0  0  0  0  0  0  0  0  0
  147.7428  137.5609  153.0561 H   0  0  0  0  0  0  0  0  0  0  0  0
  149.8182  138.2047  153.5264 H   0  0  0  0  0  0  0  0  0  0  0  0
  1  2  2  0  0  0  0
  2  3  1  0  0  0  0
  2  9  1  0  0  0  0
  3  4  1  0  0  0  0
  3 18  1  0  0  0  0
  4  8  1  0  0  0  0
  4  5  2  0  0  0  0
  5  6  1  0  0  0  0
  6  7  2  0  0  0  0
  6 19  1  0  0  0  0
  7  8  1  0  0  0  0
  7 20  1  0  0  0  0
  9 10  1  0  0  0  0
  9 21  1  0  0  0  0
 10 16  1  0  0  0  0
 10 11  1  0  0  0  0
 10 22  1  0  0  0  0
 11 12  1  0  0  0  0
 11 23  1  0  0  0  0
 11 24  1  0  0  0  0
 12 13  1  0  0  0  0
 12 25  1  0  0  0  0
 12 26  1  0  0  0  0
 13 14  1  0  0  0  0
 13 27  1  0  0  0  0
 13 28  1  0  0  0  0
 14 15  1  0  0  0  0
 14 29  1  0  0  0  0
 14 30  1  0  0  0  0
 15 16  1  0  0  0  0
 15 31  1  0  0  0  0
 16 17  2  0  0  0  0
M  END
> <s_m_source_file>
AV-unprocessed.smi

> <i_m_source_file_index>
2041

> <i_lp_mmshare_version>
43012

> <i_f3d_flags>
0

> <s_epik_input>
czFbY0hdW2NIXW5jMVtOSF1DKD1PKVtOSF1bQ0BASF0yW0NIMl1bQ0gyXVtDSDJdW0NIMl1bTkhdQzI9Tw==

> <s_epik_cmdline>
J2VwaWtfcHl0aG9uJywgJy1waCcsICc3LjAnLCAnLXRuJywgJzgnLCAnLW1hJywgJzIwMCcsICctbWV0YWxfYmluZGluZycsICctaW1hZScsICc8aW5maWxlLm1hZT4nLCAnLW9tYWUnLCAnPG91dGZpbGUubWFlPic=

> <r_lp_tautomer_probability>
1

> <r_epik_Ionization_Penalty>
0.000247973

> <r_epik_Ionization_Penalty_Charging>
0

> <r_epik_Ionization_Penalty_Neutral>
0.000247973

> <r_epik_State_Penalty>
-0

> <r_epik_Charging_Adjusted_Penalty>
0

> <i_epik_Tot_Q>
0

> <i_epik_Tot_abs_Q>
0

> <r_epik_Metal_State_Penalty>
0.011719

> <b_epik_Metal_Only>
0

> <s_lp_Force_Field>
OPLS_2005

> <r_lp_Energy>
8.61141

> <b_lp_Chiralities_Consistent>
1

> <s_lp_Variant>
AV-unprocessed.smi:2041-2

> <Gold.Version>
5.8.1

> <Gold.Id.Protein>
6NUR|6NUR_protein|mol2

> <Gold.PLP.Fitness>
40.8955

> <Gold.PLP.PLP>
-32.2937

> <Gold.PLP.part.hbond>
-4.1974

> <Gold.PLP.part.metal>
0.0000

> <Gold.PLP.part.buried>
-1.3182

> <Gold.PLP.part.nonpolar>
-27.4340

> <Gold.PLP.part.repulsive>
0.2982

> <Gold.PLP.ligand.clash>
0.0000

> <Gold.PLP.ligand.torsion>
0.1286

> <Gold.PLP.Chemscore.Hbond>
2.9440

> <Gold.PLP.Chemscore.CHOScore>
0.0000

> <Gold.PLP.Chemscore.Metal>
0.0000

> <Gold.Chemscore.Hbonds>
donor molecule, donor type, donor heavy atom, donor atom, acceptor molecule, acceptor atom, score
      L1  H     3    18       P1  8028  0.94
      L1  H     9    21       P1  8028  1.00
      P1  H  7989  7998       L1    17  1.00

> <Gold.PLP.Chemscore.Internal.Correction>
0.0270

> <Gold.Rescore>
     Score         DG    S(hbond)    S(metal)    S(lipo)     H(rot)  DE(clash)    DE(int)     intcor
     17.97     -19.51       2.77        0.00      62.75       1.00       0.10       1.44       ----

> <Gold.Chemscore.Fitness>
17.9689

> <Gold.Chemscore.DG>
-19.5091

> <Gold.Chemscore.ZeroCoef>
-5.4800

> <Gold.Chemscore.Hbond>
2.7688

> <Gold.Chemscore.Metal>
0.0000

> <Gold.Chemscore.Lipo>
62.7460

> <Gold.Chemscore.Internal_Hbond>
0.0000

> <Gold.Chemscore.DEClash>
0.1046

> <Gold.Chemscore.DEInternal>
1.4356

> <Gold.Chemscore.Rot>
1.0000

> <Gold.Chemscore.Internal.Correction>
   9.000000E+99

> <Gold.Chemscore.Hbonds>
donor molecule, donor type, donor heavy atom, donor atom, acceptor molecule, acceptor atom, score
      L1  H     3    18       P1  8028  0.86
      L1  H     9    21       P1  8028  0.99
      P1  H  7989  7998       L1    17  0.94

> <Gold.Chemscore.Hbond.Weighted>
-9.2478

> <Gold.Chemscore.Metal.Weighted>
-0.0000

> <Gold.Chemscore.Lipo.Weighted>
-7.3413

> <Gold.Chemscore.Internal_Hbond.Weighted>
0.0000

> <Gold.Chemscore.DEClash.Weighted>
0.1046

> <Gold.Chemscore.DEInternal.Weighted>
1.4356

> <Gold.Chemscore.Rot.Weighted>
2.5600

> <Gold.Chemscore.Internal.Correction.Weighted>
   9.000000E+99

> <Gold.Protein.RotatedTorsions>
[ 6907 6896 6895 6894 ] final   59.67 input  -60.11 | X-H torsion
[ 7974 7965 7964 7962 ] final  177.45 input  175.53 | X-H torsion
[ 8008 7997 7996 7995 ] final  -95.41 input   59.86 | X-H torsion
[ 10167 10162 10161 10158 ] final  -17.70 input  -65.29 | X-H torsion
[ 10718 10713 10712 10709 ] final   26.05 input   66.30 | X-H torsion
[ 10763 10752 10751 10750 ] final  140.41 input  -60.55 | X-H torsion
[ 11005 11000 10999 10996 ] final -123.56 input  -57.11 | X-H torsion

> <Gold.Protein.ActiveResidues>
 VAL166  LYS551  ARG553  GLY616  TRP617  ASP618  TYR619  PRO620  LYS621  CYS622 
 ASP623  PHE694  ASN695  SER759  ASP760  ASP761  ALA762  ILE779  LEU786  VAL792 
 PHE793  MET794  SER795  GLU796  ALA797  LYS798  CYS799  TRP800  GLU811  SER814 

> <Gold.Protein.RotatedAtoms>
  152.3935  134.6402  160.0097 H   0  0  0  0  0  0  0  0  0  0  0  0  # atno 6907 bound_to 6896
  151.6629  133.3311  159.3186 H   0  0  0  0  0  0  0  0  0  0  0  0  # atno 6908 bound_to 6896
  150.7847  134.6865  159.6518 H   0  0  0  0  0  0  0  0  0  0  0  0  # atno 6909 bound_to 6896
  144.7169  140.0249  143.6439 H   0  0  0  0  0  0  0  0  0  0  0  0  # atno 7974 bound_to 7965
  154.7610  140.0480  157.0973 H   0  0  0  0  0  0  0  0  0  0  0  0  # atno 8008 bound_to 7997
  154.9938  140.3116  155.4876 H   0  0  0  0  0  0  0  0  0  0  0  0  # atno 8009 bound_to 7997
  156.2904  140.2214  156.5044 H   0  0  0  0  0  0  0  0  0  0  0  0  # atno 8010 bound_to 7997
  140.7250  143.4990  150.9894 H   0  0  0  0  0  0  0  0  0  0  0  0  # atno 10167 bound_to 10162
  157.2016  130.6892  149.6191 H   0  0  0  0  0  0  0  0  0  0  0  0  # atno 10718 bound_to 10713
  153.9222  135.2999  155.3447 H   0  0  0  0  0  0  0  0  0  0  0  0  # atno 10763 bound_to 10752
  154.7569  135.4953  153.9395 H   0  0  0  0  0  0  0  0  0  0  0  0  # atno 10764 bound_to 10752
  153.1135  135.6765  153.9561 H   0  0  0  0  0  0  0  0  0  0  0  0  # atno 10765 bound_to 10752
  140.9909  134.0540  157.3655 H   0  0  0  0  0  0  0  0  0  0  0  0  # atno 11005 bound_to 11000
  146.0150  139.3202  143.0847 LP  0  0  0  0  0  0  0  0  0  0  0  0  # atno 17320 bound_to 7965
  145.8636  140.9461  143.0687 LP  0  0  0  0  0  0  0  0  0  0  0  0  # atno 17321 bound_to 7965
  139.8698  143.7207  152.3167 LP  0  0  0  0  0  0  0  0  0  0  0  0  # atno 17342 bound_to 10162
  139.7452  144.7549  151.0591 LP  0  0  0  0  0  0  0  0  0  0  0  0  # atno 17343 bound_to 10162
  155.9700  130.4581  150.5986 LP  0  0  0  0  0  0  0  0  0  0  0  0  # atno 17370 bound_to 10713
  157.3761  131.0773  151.1516 LP  0  0  0  0  0  0  0  0  0  0  0  0  # atno 17371 bound_to 10713
  139.8992  135.0157  156.7183 LP  0  0  0  0  0  0  0  0  0  0  0  0  # atno 17394 bound_to 11000
  140.7041  133.9280  155.8043 LP  0  0  0  0  0  0  0  0  0  0  0  0  # atno 17395 bound_to 11000

$$$$
