#       Name:                AV-unprocessed.smi:1276
#       Creating user name   scv26
#       Creation time:       Fri Mar 27 04:47:43 2020


#       File generated by GOLD software.
#

@<TRIPOS>MOLECULE
AV-unprocessed.smi:1276
    50    51     1
SMALL
NO_CHARGES


@<TRIPOS>ATOM
      1 ****        -4.8295   0.5828   2.7876 C.3            1 S1                 0.0000
      2 ****        -3.6463  -0.3333   2.6283 C.2            1 S1                 0.0000
      3 ****        -2.5091   0.2263   2.3751 N.2            1 S1                 0.0000
      4 ****        -1.3607  -0.5227   2.2049 N.am           1 S1                 0.0000
      5 ****        -0.1637   0.2748   1.8994 C.3            1 S1                 0.0000
      6 ****         0.1859   0.2959   0.4041 C.2            1 S1                 0.0000
      7 ****        -0.6810   0.0991  -0.4487 O.2            1 S1                 0.0000
      8 ****         1.4668   0.5618   0.1037 N.am           1 S1                 0.0000
      9 ****         2.0270   0.6329  -1.2445 C.3            1 S1                 0.0000
     10 ****         3.5029   0.1859  -1.1726 C.3            1 S1                 0.0000
     11 ****         4.3944   0.5014  -2.3878 C.3            1 S1                 0.0000
     12 ****         3.7072   0.4378  -3.7607 C.3            1 S1                 0.0000
     13 ****         3.0084   1.7560  -4.1336 C.3            1 S1                 0.0000
     14 ****         1.6976   2.0250  -3.3803 C.3            1 S1                 0.0000
     15 ****         1.8122   2.0395  -1.8455 C.3            1 S1                 0.0000
     16 ****        -1.3005  -1.8828   2.2930 C.2            1 S1                 0.0000
     17 ****        -0.2513  -2.5105   2.1403 O.2            1 S1                 0.0000
     18 ****        -2.5922  -2.5099   2.5815 C.2            1 S1                 0.0000
     19 ****        -2.5744  -3.9340   2.6776 C.1            1 S1                 0.0000
     20 ****        -2.5791  -5.0884   2.7624 N.1            1 S1                 0.0000
     21 ****        -3.7277  -1.7858   2.7449 C.2            1 S1                 0.0000
     22 ****        -5.0934  -2.3888   3.0439 C.3            1 S1                 0.0000
     23 ****        -5.2516   0.4982   3.7890 H              1 S1                 0.0000
     24 ****        -5.6103   0.3356   2.0682 H              1 S1                 0.0000
     25 ****        -4.5588   1.6282   2.6317 H              1 S1                 0.0000
     26 ****        -0.3046   1.3066   2.2263 H              1 S1                 0.0000
     27 ****         0.6886  -0.0982   2.4706 H              1 S1                 0.0000
     28 ****         2.1074   0.7166   0.8685 H              1 S1                 0.0000
     29 ****         1.4943  -0.0915  -1.8636 H              1 S1                 0.0000
     30 ****         3.9792   0.6233  -0.2937 H              1 S1                 0.0000
     31 ****         3.5165  -0.8915  -1.0019 H              1 S1                 0.0000
     32 ****         4.8464   1.4857  -2.2585 H              1 S1                 0.0000
     33 ****         5.2314  -0.1978  -2.3788 H              1 S1                 0.0000
     34 ****         4.4763   0.2501  -4.5108 H              1 S1                 0.0000
     35 ****         3.0205  -0.4072  -3.8211 H              1 S1                 0.0000
     36 ****         3.6936   2.5919  -3.9885 H              1 S1                 0.0000
     37 ****         2.7875   1.7411  -5.2013 H              1 S1                 0.0000
     38 ****         1.3131   2.9918  -3.7071 H              1 S1                 0.0000
     39 ****         0.9457   1.2953  -3.6830 H              1 S1                 0.0000
     40 ****         0.8778   2.4545  -1.4647 H              1 S1                 0.0000
     41 ****         2.5936   2.7264  -1.5183 H              1 S1                 0.0000
     42 ****        -5.0524  -3.4726   3.1470 H              1 S1                 0.0000
     43 ****        -5.7949  -2.1623   2.2405 H              1 S1                 0.0000
     44 ****        -5.4949  -1.9881   3.9749 H              1 S1                 0.0000
     45 ****        -2.4594   1.2223   2.3009 LP             1 S1                 0.0000
     46 ****        -1.6252  -0.0770  -0.1704 LP             1 S1                 0.0000
     47 ****        -0.4404   0.1155  -1.4192 LP             1 S1                 0.0000
     48 ****         0.5992  -2.0226   1.9437 LP             1 S1                 0.0000
     49 ****        -0.2502  -3.5078   2.2131 LP             1 S1                 0.0000
     50 ****        -2.5831  -6.0857   2.8357 LP             1 S1                 0.0000
@<TRIPOS>BOND
    1    1    2 1     
    2    1   23 1     
    3    1   24 1     
    4    1   25 1     
    5    2   21 1     
    6    2    3 2     
    7    3    4 1     
    8    4    5 1     
    9    4   16 am    
   10    5    6 1     
   11    5   26 1     
   12    5   27 1     
   13    6    7 2     
   14    6    8 am    
   15    8    9 1     
   16    8   28 1     
   17    9   15 1     
   18    9   10 1     
   19    9   29 1     
   20   10   11 1     
   21   10   30 1     
   22   10   31 1     
   23   11   12 1     
   24   11   32 1     
   25   11   33 1     
   26   12   13 1     
   27   12   34 1     
   28   12   35 1     
   29   13   14 1     
   30   13   36 1     
   31   13   37 1     
   32   14   15 1     
   33   14   38 1     
   34   14   39 1     
   35   15   40 1     
   36   15   41 1     
   37   16   17 2     
   38   16   18 1     
   39   18   19 1     
   40   18   21 2     
   41   19   20 3     
   42   21   22 1     
   43   22   42 1     
   44   22   43 1     
   45   22   44 1     
   46    3   45 1     
   47    7   46 1     
   48    7   47 1     
   49   17   48 1     
   50   17   49 1     
   51   20   50 1     
@<TRIPOS>SUBSTRUCTURE
      1 S1             1
@<TRIPOS>SET
LONE_PAIRS      STATIC     ATOMS    <user>   **** ""
6 45 46 47 48 49 50
DONOR_HYDROGENS      STATIC     ATOMS    <user>   **** ""
1 28
ATOM$BLUE        STATIC     ATOMS    COLORGROUP SYSTEM
6 45 46 47 48 49 50
ATOM$RED        STATIC     ATOMS    COLORGROUP SYSTEM
1 28
