#       Name:                AV-unprocessed.smi:1958
#       Creating user name   scv26
#       Creation time:       Fri Mar 27 10:07:08 2020


#       File generated by GOLD software.
#

@<TRIPOS>MOLECULE
AV-unprocessed.smi:1958
    57    58     1
SMALL
NO_CHARGES


@<TRIPOS>ATOM
      1 ****        -5.2787  -3.1700   3.2485 C.3            1 S1                 0.0000
      2 ****        -5.1011  -2.4902   2.0185 O.3            1 S1                 0.0000
      3 ****        -4.5668  -1.1886   2.1895 C.3            1 S1                 0.0000
      4 ****        -4.4134  -0.5334   0.8092 C.3            1 S1                 0.0000
      5 ****        -3.8236   0.8051   0.9105 N.am           1 S1                 0.0000
      6 ****        -2.4514   0.8306   0.7274 N.2            1 S1                 0.0000
      7 ****        -1.8085   1.9519   0.7843 C.2            1 S1                 0.0000
      8 ****        -0.3341   2.0201   0.5856 C.2            1 S1                 0.0000
      9 ****         0.2715   3.0928   0.5738 O.2            1 S1                 0.0000
     10 ****         0.2763   0.8331   0.4120 N.am           1 S1                 0.0000
     11 ****         1.7038   0.6307   0.1775 C.3            1 S1                 0.0000
     12 ****         1.9994   0.0345  -1.2240 C.3            1 S1                 0.0000
     13 ****         1.3937   0.9303  -2.3333 C.3            1 S1                 0.0000
     14 ****         3.4723  -0.2000  -1.3940 N.4            1 S1                 1.0000
     15 ****         3.9731  -1.3439  -0.5824 C.3            1 S1                 0.0000
     16 ****         5.4962  -1.4986  -0.7206 C.3            1 S1                 0.0000
     17 ****         5.8293  -1.6859  -2.0874 O.3            1 S1                 0.0000
     18 ****         5.4590  -0.5605  -2.8688 C.3            1 S1                 0.0000
     19 ****         3.9359  -0.3529  -2.8018 C.3            1 S1                 0.0000
     20 ****        -2.5082   3.1988   1.0432 C.2            1 S1                 0.0000
     21 ****        -3.8456   3.1564   1.2311 C.2            1 S1                 0.0000
     22 ****        -4.5966   1.9010   1.1762 C.2            1 S1                 0.0000
     23 ****        -5.8123   1.8352   1.3550 O.2            1 S1                 0.0000
     24 ****        -5.6864  -4.1634   3.0618 H              1 S1                 0.0000
     25 ****        -5.9750  -2.6364   3.8965 H              1 S1                 0.0000
     26 ****        -4.3307  -3.2882   3.7746 H              1 S1                 0.0000
     27 ****        -5.2280  -0.5942   2.8219 H              1 S1                 0.0000
     28 ****        -3.5975  -1.2468   2.6873 H              1 S1                 0.0000
     29 ****        -3.7883  -1.1663   0.1765 H              1 S1                 0.0000
     30 ****        -5.3809  -0.4881   0.3063 H              1 S1                 0.0000
     31 ****        -0.3014   0.0048   0.4390 H              1 S1                 0.0000
     32 ****         2.2636   1.5580   0.3095 H              1 S1                 0.0000
     33 ****         2.0369  -0.0359   0.9704 H              1 S1                 0.0000
     34 ****         1.5015  -0.9338  -1.2976 H              1 S1                 0.0000
     35 ****         0.3297   1.1064  -2.1792 H              1 S1                 0.0000
     36 ****         1.4671   0.4704  -3.3186 H              1 S1                 0.0000
     37 ****         1.8832   1.9040  -2.3708 H              1 S1                 0.0000
     38 ****         3.7425  -1.2142   0.4728 H              1 S1                 0.0000
     39 ****         3.4792  -2.2622  -0.9037 H              1 S1                 0.0000
     40 ****         6.0170  -0.6282  -0.3178 H              1 S1                 0.0000
     41 ****         5.8386  -2.3643  -0.1535 H              1 S1                 0.0000
     42 ****         5.9887   0.3286  -2.5228 H              1 S1                 0.0000
     43 ****         5.7680  -0.7313  -3.9003 H              1 S1                 0.0000
     44 ****         3.4216  -1.1950  -3.2678 H              1 S1                 0.0000
     45 ****         3.7067   0.5369  -3.3869 H              1 S1                 0.0000
     46 ****        -1.9795   4.1397   1.0902 H              1 S1                 0.0000
     47 ****        -4.3787   4.0752   1.4270 H              1 S1                 0.0000
     48 ****         3.9309   0.6295  -1.0444 H              1 S1                 0.0000
     49 ****        -5.9879  -2.4154   1.5625 LP             1 S1                 0.0000
     50 ****        -4.4758  -3.0209   1.4463 LP             1 S1                 0.0000
     51 ****        -1.9560  -0.0199   0.5507 LP             1 S1                 0.0000
     52 ****        -0.2275   3.9501   0.6999 LP             1 S1                 0.0000
     53 ****         1.2622   3.1062   0.4381 LP             1 S1                 0.0000
     54 ****         5.3498  -2.4932  -2.4316 LP             1 S1                 0.0000
     55 ****         6.8164  -1.8260  -2.1656 LP             1 S1                 0.0000
     56 ****        -6.2773   0.9511   1.3086 LP             1 S1                 0.0000
     57 ****        -6.3351   2.6658   1.5466 LP             1 S1                 0.0000
@<TRIPOS>BOND
    1    1    2 1     
    2    1   24 1     
    3    1   25 1     
    4    1   26 1     
    5    2    3 1     
    6    3    4 1     
    7    3   27 1     
    8    3   28 1     
    9    4    5 1     
   10    4   29 1     
   11    4   30 1     
   12    5   22 am    
   13    5    6 1     
   14    6    7 2     
   15    7    8 1     
   16    7   20 1     
   17    8    9 2     
   18    8   10 am    
   19   10   11 1     
   20   10   31 1     
   21   11   12 1     
   22   11   32 1     
   23   11   33 1     
   24   12   13 1     
   25   12   14 1     
   26   12   34 1     
   27   13   35 1     
   28   13   36 1     
   29   13   37 1     
   30   14   19 1     
   31   14   15 1     
   32   14   48 1     
   33   15   16 1     
   34   15   38 1     
   35   15   39 1     
   36   16   17 1     
   37   16   40 1     
   38   16   41 1     
   39   17   18 1     
   40   18   19 1     
   41   18   42 1     
   42   18   43 1     
   43   19   44 1     
   44   19   45 1     
   45   20   21 2     
   46   20   46 1     
   47   21   22 1     
   48   21   47 1     
   49   22   23 2     
   50    2   49 1     
   51    2   50 1     
   52    6   51 1     
   53    9   52 1     
   54    9   53 1     
   55   17   54 1     
   56   17   55 1     
   57   23   56 1     
   58   23   57 1     
@<TRIPOS>SUBSTRUCTURE
      1 S1             1
@<TRIPOS>SET
LONE_PAIRS      STATIC     ATOMS    <user>   **** ""
9 49 50 51 52 53 54 55 56 57
DONOR_HYDROGENS      STATIC     ATOMS    <user>   **** ""
2 31 48
ATOM$BLUE        STATIC     ATOMS    COLORGROUP SYSTEM
9 49 50 51 52 53 54 55 56 57
ATOM$RED        STATIC     ATOMS    COLORGROUP SYSTEM
2 31 48
