AV-unprocessed.smi:3287|AV-procd|sdf|12602|dock3
  -GOLD-   2272018523D 1   1.00000     0.00000
 Structure written by MMmdl.
 43 44  0  0  0  0  0  0  0  0  2 V2000
  150.7341  142.0611  156.6181 C   0  0  0  0  0  0  0  0  0  0  0  0
  150.1933  141.2804  155.4089 C   0  0  2  0  0  0  0  0  0  0  0  0
  148.6604  141.3912  155.2932 C   0  0  0  0  0  0  0  0  0  0  0  0
  148.1405  140.6811  154.0336 C   0  0  0  0  0  0  0  0  0  0  0  0
  148.5776  139.2064  153.9882 C   0  0  1  0  0  0  0  0  0  0  0  0
  148.0857  138.5794  152.7417 N   0  3  0  0  0  0  0  0  0  0  0  0
  146.6193  138.6161  152.5508 C   0  0  0  0  0  0  0  0  0  0  0  0
  145.8959  137.7337  153.5830 C   0  0  1  0  0  0  0  0  0  0  0  0
  144.8489  138.4828  154.1688 O   0  0  0  0  0  0  0  0  0  0  0  0
  145.3821  136.4520  152.9458 C   0  0  0  0  0  0  0  0  0  0  0  0
  144.6854  135.4867  153.7048 C   0  0  0  0  0  0  0  0  0  0  0  0
  144.2275  134.3220  153.0569 C   0  0  0  0  0  0  0  0  0  0  0  0
  144.4198  134.0809  151.7426 N   0  0  0  0  0  0  0  0  0  0  0  0
  145.0853  135.0076  151.0212 C   0  0  0  0  0  0  0  0  0  0  0  0
  145.5838  136.2056  151.5716 C   0  0  0  0  0  0  0  0  0  0  0  0
  150.1149  139.1018  154.1084 C   0  0  0  0  0  0  0  0  0  0  0  0
  150.6616  139.8030  155.3703 C   0  0  2  0  0  0  0  0  0  0  0  0
  150.3397  139.0035  156.6494 C   0  0  0  0  0  0  0  0  0  0  0  0
  150.3029  141.7078  157.5547 H   0  0  0  0  0  0  0  0  0  0  0  0
  150.4985  143.1224  156.5326 H   0  0  0  0  0  0  0  0  0  0  0  0
  151.8183  141.9718  156.6914 H   0  0  0  0  0  0  0  0  0  0  0  0
  150.6123  141.7644  154.5250 H   0  0  0  0  0  0  0  0  0  0  0  0
  148.1830  140.9691  156.1780 H   0  0  0  0  0  0  0  0  0  0  0  0
  148.3663  142.4410  155.2620 H   0  0  0  0  0  0  0  0  0  0  0  0
  147.0525  140.7494  154.0001 H   0  0  0  0  0  0  0  0  0  0  0  0
  148.5086  141.2035  153.1491 H   0  0  0  0  0  0  0  0  0  0  0  0
  148.1100  138.6908  154.8280 H   0  0  0  0  0  0  0  0  0  0  0  0
  148.5015  139.0728  151.9649 H   0  0  0  0  0  0  0  0  0  0  0  0
  146.2555  139.6418  152.6159 H   0  0  0  0  0  0  0  0  0  0  0  0
  146.3920  138.2600  151.5451 H   0  0  0  0  0  0  0  0  0  0  0  0
  146.5918  137.4678  154.3801 H   0  0  0  0  0  0  0  0  0  0  0  0
  144.4721  139.0407  153.5046 H   0  0  0  0  0  0  0  0  0  0  0  0
  144.5023  135.6308  154.7596 H   0  0  0  0  0  0  0  0  0  0  0  0
  143.6912  133.5647  153.6095 H   0  0  0  0  0  0  0  0  0  0  0  0
  145.2242  134.7888  149.9726 H   0  0  0  0  0  0  0  0  0  0  0  0
  146.1082  136.9145  150.9477 H   0  0  0  0  0  0  0  0  0  0  0  0
  150.4343  138.0597  154.1112 H   0  0  0  0  0  0  0  0  0  0  0  0
  150.5734  139.5524  153.2269 H   0  0  0  0  0  0  0  0  0  0  0  0
  151.7490  139.8090  155.2814 H   0  0  0  0  0  0  0  0  0  0  0  0
  149.2729  138.9888  156.8702 H   0  0  0  0  0  0  0  0  0  0  0  0
  150.8508  139.4176  157.5183 H   0  0  0  0  0  0  0  0  0  0  0  0
  150.6689  137.9685  156.5541 H   0  0  0  0  0  0  0  0  0  0  0  0
  148.3969  137.6186  152.7118 H   0  0  0  0  0  0  0  0  0  0  0  0
  1  2  1  0  0  0  0
  1 19  1  0  0  0  0
  1 20  1  0  0  0  0
  1 21  1  0  0  0  0
  2 17  1  0  0  0  0
  2  3  1  0  0  0  0
  2 22  1  0  0  0  0
  3  4  1  0  0  0  0
  3 23  1  0  0  0  0
  3 24  1  0  0  0  0
  4  5  1  0  0  0  0
  4 25  1  0  0  0  0
  4 26  1  0  0  0  0
  5  6  1  0  0  0  0
  5 16  1  0  0  0  0
  5 27  1  0  0  0  0
  6  7  1  0  0  0  0
  6 28  1  0  0  0  0
  6 43  1  0  0  0  0
  7  8  1  0  0  0  0
  7 29  1  0  0  0  0
  7 30  1  0  0  0  0
  8  9  1  0  0  0  0
  8 10  1  0  0  0  0
  8 31  1  0  0  0  0
  9 32  1  0  0  0  0
 10 15  1  0  0  0  0
 10 11  2  0  0  0  0
 11 12  1  0  0  0  0
 11 33  1  0  0  0  0
 12 13  2  0  0  0  0
 12 34  1  0  0  0  0
 13 14  1  0  0  0  0
 14 15  2  0  0  0  0
 14 35  1  0  0  0  0
 15 36  1  0  0  0  0
 16 17  1  0  0  0  0
 16 37  1  0  0  0  0
 16 38  1  0  0  0  0
 17 18  1  0  0  0  0
 17 39  1  0  0  0  0
 18 40  1  0  0  0  0
 18 41  1  0  0  0  0
 18 42  1  0  0  0  0
M  CHG  1   6   1
M  END
> <s_m_source_file>
AV-unprocessed.smi

> <i_m_source_file_index>
3287

> <i_lp_mmshare_version>
43012

> <i_f3d_flags>
0

> <s_epik_input>
W0NIM11bQ0BASF0xW0NIMl1bQ0gyXVtDQEhdKFtDSDJdW0NASF0xW0NIM10pW05IXVtDSDJdW0NASF0oW09IXSljMltjSF1bY0hdbltjSF1bY0hdMg==

> <s_epik_cmdline>
J2VwaWtfcHl0aG9uJywgJy1waCcsICc3LjAnLCAnLXRuJywgJzgnLCAnLW1hJywgJzIwMCcsICctbWV0YWxfYmluZGluZycsICctaW1hZScsICc8aW5maWxlLm1hZT4nLCAnLW9tYWUnLCAnPG91dGZpbGUubWFlPic=

> <r_lp_tautomer_probability>
1

> <r_epik_Ionization_Penalty>
0.00537262

> <r_epik_Ionization_Penalty_Charging>
0.00321624

> <r_epik_Ionization_Penalty_Neutral>
0.00215638

> <r_epik_State_Penalty>
-0

> <r_epik_Charging_Adjusted_Penalty>
0.00321624

> <i_epik_Tot_Q>
1

> <i_epik_Tot_abs_Q>
1

> <r_epik_Metal_State_Penalty>
-0

> <b_epik_Metal_Only>
0

> <s_lp_Force_Field>
OPLS_2005

> <r_lp_Energy>
17.6896

> <b_lp_Chiralities_Consistent>
1

> <s_lp_Variant>
AV-unprocessed.smi:3287-13

> <Gold.Version>
5.8.1

> <Gold.Id.Protein>
6NUR|6NUR_protein|mol2

> <Gold.PLP.Fitness>
48.9492

> <Gold.PLP.PLP>
-32.5528

> <Gold.PLP.part.hbond>
-3.0000

> <Gold.PLP.part.metal>
0.0000

> <Gold.PLP.part.buried>
-2.6810

> <Gold.PLP.part.nonpolar>
-27.9847

> <Gold.PLP.part.repulsive>
0.2036

> <Gold.PLP.ligand.clash>
0.0000

> <Gold.PLP.ligand.torsion>
0.6894

> <Gold.PLP.Chemscore.Hbond>
4.0000

> <Gold.PLP.Chemscore.CHOScore>
1.9096

> <Gold.PLP.Chemscore.Metal>
0.0000

> <Gold.Chemscore.Hbonds>
donor molecule, donor type, donor heavy atom, donor atom, acceptor molecule, acceptor atom, score
      L1  H     6    28       P1  7957  1.00
      L1  H     6    43       P1  7948  2.00
      L1  H     9    32       P1 10175  1.00
      L1  C    12    34       P1 10957  1.00
      L1  C    14    35       P1  7921  1.00

> <Gold.PLP.Chemscore.Internal.Correction>
0.0466

> <Gold.Rescore>
     Score         DG    S(hbond)    S(metal)    S(lipo)     H(rot)  DE(clash)    DE(int)     intcor
     19.52     -20.42       2.93        0.00      85.61       1.90       0.07       0.83       ----

> <Gold.Chemscore.Fitness>
19.5216

> <Gold.Chemscore.DG>
-20.4184

> <Gold.Chemscore.ZeroCoef>
-5.4800

> <Gold.Chemscore.Hbond>
2.9325

> <Gold.Chemscore.Metal>
0.0000

> <Gold.Chemscore.Lipo>
85.6130

> <Gold.Chemscore.Internal_Hbond>
0.0000

> <Gold.Chemscore.DEClash>
0.0679

> <Gold.Chemscore.DEInternal>
0.8289

> <Gold.Chemscore.Rot>
1.9035

> <Gold.Chemscore.Internal.Correction>
   9.000000E+99

> <Gold.Chemscore.Hbonds>
donor molecule, donor type, donor heavy atom, donor atom, acceptor molecule, acceptor atom, score
      L1  H     6    28       P1  7957  0.97
      L1  H     6    43       P1  7948  0.95
      L1  H     9    32       P1 10175  1.00

> <Gold.Chemscore.Hbond.Weighted>
-9.7946

> <Gold.Chemscore.Metal.Weighted>
-0.0000

> <Gold.Chemscore.Lipo.Weighted>
-10.0167

> <Gold.Chemscore.Internal_Hbond.Weighted>
0.0000

> <Gold.Chemscore.DEClash.Weighted>
0.0679

> <Gold.Chemscore.DEInternal.Weighted>
0.8289

> <Gold.Chemscore.Rot.Weighted>
4.8729

> <Gold.Chemscore.Internal.Correction.Weighted>
   9.000000E+99

> <Gold.Protein.RotatedTorsions>
[ 6907 6896 6895 6894 ] final -152.52 input  -60.11 | X-H torsion
[ 7974 7965 7964 7962 ] final   -3.70 input  175.53 | X-H torsion
[ 8008 7997 7996 7995 ] final   48.55 input   59.86 | X-H torsion
[ 10167 10162 10161 10158 ] final  136.36 input  -65.29 | X-H torsion
[ 10718 10713 10712 10709 ] final -169.84 input   66.30 | X-H torsion
[ 10763 10752 10751 10750 ] final   77.45 input  -60.55 | X-H torsion
[ 11005 11000 10999 10996 ] final   79.82 input  -57.11 | X-H torsion

> <Gold.Protein.ActiveResidues>
 VAL166  LYS551  ARG553  GLY616  TRP617  ASP618  TYR619  PRO620  LYS621  CYS622 
 ASP623  PHE694  ASN695  SER759  ASP760  ASP761  ALA762  ILE779  LEU786  VAL792 
 PHE793  MET794  SER795  GLU796  ALA797  LYS798  CYS799  TRP800  GLU811  SER814 

> <Gold.Protein.RotatedAtoms>
  151.2291  133.4460  159.2602 H   0  0  0  0  0  0  0  0  0  0  0  0  # atno 6907 bound_to 6896
  151.0812  134.9859  159.8367 H   0  0  0  0  0  0  0  0  0  0  0  0  # atno 6908 bound_to 6896
  152.5424  134.2230  159.8848 H   0  0  0  0  0  0  0  0  0  0  0  0  # atno 6909 bound_to 6896
  146.2385  140.1760  142.8332 H   0  0  0  0  0  0  0  0  0  0  0  0  # atno 7974 bound_to 7965
  155.3876  140.3431  155.4249 H   0  0  0  0  0  0  0  0  0  0  0  0  # atno 8008 bound_to 7997
  156.1576  140.1590  156.8700 H   0  0  0  0  0  0  0  0  0  0  0  0  # atno 8009 bound_to 7997
  154.5109  140.0790  156.7969 H   0  0  0  0  0  0  0  0  0  0  0  0  # atno 8010 bound_to 7997
  139.5183  144.6469  151.5415 H   0  0  0  0  0  0  0  0  0  0  0  0  # atno 10167 bound_to 10162
  156.7174  130.9257  151.3094 H   0  0  0  0  0  0  0  0  0  0  0  0  # atno 10718 bound_to 10713
  153.0799  135.4914  154.8482 H   0  0  0  0  0  0  0  0  0  0  0  0  # atno 10763 bound_to 10752
  154.7137  135.3025  154.9159 H   0  0  0  0  0  0  0  0  0  0  0  0  # atno 10764 bound_to 10752
  153.9844  135.6786  153.4804 H   0  0  0  0  0  0  0  0  0  0  0  0  # atno 10765 bound_to 10752
  139.9158  134.7872  156.1829 H   0  0  0  0  0  0  0  0  0  0  0  0  # atno 11005 bound_to 11000
  144.9973  140.8600  143.5303 LP  0  0  0  0  0  0  0  0  0  0  0  0  # atno 17320 bound_to 7965
  145.1774  139.2370  143.5310 LP  0  0  0  0  0  0  0  0  0  0  0  0  # atno 17321 bound_to 7965
  140.6257  143.9173  150.6563 LP  0  0  0  0  0  0  0  0  0  0  0  0  # atno 17342 bound_to 10162
  140.2461  143.3628  152.1445 LP  0  0  0  0  0  0  0  0  0  0  0  0  # atno 17343 bound_to 10162
  157.6912  130.9235  150.0518 LP  0  0  0  0  0  0  0  0  0  0  0  0  # atno 17370 bound_to 10713
  156.1618  130.3644  149.9288 LP  0  0  0  0  0  0  0  0  0  0  0  0  # atno 17371 bound_to 10713
  141.0631  133.6832  156.1992 LP  0  0  0  0  0  0  0  0  0  0  0  0  # atno 17394 bound_to 11000
  140.6628  134.4949  157.5584 LP  0  0  0  0  0  0  0  0  0  0  0  0  # atno 17395 bound_to 11000

$$$$
