AV-unprocessed.smi:767|AV-procd|sdf|3666|dock10
  -GOLD-   22720 1 73D 1   1.00000     0.00000
 Structure written by MMmdl.
 48 50  0  0  0  0  0  0  0  0  2 V2000
  151.4753  143.4407  157.7702 C   0  0  0  0  0  0  0  0  0  0  0  0
  151.0413  142.2540  156.9361 C   0  0  0  0  0  0  0  0  0  0  0  0
  151.6052  140.9703  157.0988 C   0  0  0  0  0  0  0  0  0  0  0  0
  151.1544  139.9115  156.2832 C   0  0  0  0  0  0  0  0  0  0  0  0
  150.1490  140.1572  155.3224 C   0  0  0  0  0  0  0  0  0  0  0  0
  149.6529  139.0422  154.4234 C   0  0  0  0  0  0  0  0  0  0  0  0
  148.7680  138.0415  155.1838 C   0  0  0  0  0  0  0  0  0  0  0  0
  148.3618  136.9287  154.3342 N   0  0  0  0  0  0  0  0  0  0  0  0
  147.5524  135.9318  154.7167 C   0  0  0  0  0  0  0  0  0  0  0  0
  147.0413  135.8493  155.8338 O   0  0  0  0  0  0  0  0  0  0  0  0
  147.3736  135.0316  153.7413 N   0  0  0  0  0  0  0  0  0  0  0  0
  146.5541  133.8224  153.8713 C   0  0  1  0  0  0  0  0  0  0  0  0
  145.5396  133.6698  152.7347 C   0  0  1  0  0  0  0  0  0  0  0  0
  144.9437  134.5662  151.7104 C   0  0  0  0  0  0  0  0  0  0  0  0
  145.0067  133.5697  150.5208 C   0  0  0  0  0  0  0  0  0  0  0  0
  145.8085  132.4506  150.9791 O   0  0  0  0  0  0  0  0  0  0  0  0
  146.6616  133.0198  151.9523 C   0  0  2  0  0  0  0  0  0  0  0  0
  147.2016  132.4975  153.3024 C   0  0  0  0  0  0  0  0  0  0  0  0
  148.7263  132.3676  153.3934 C   0  0  0  0  0  0  0  0  0  0  0  0
  146.6362  131.1619  153.8183 C   0  0  0  0  0  0  0  0  0  0  0  0
  149.6209  141.4607  155.2055 C   0  0  0  0  0  0  0  0  0  0  0  0
  150.0800  142.4481  156.0052 N   0  3  0  0  0  0  0  0  0  0  0  0
  152.2343  143.1528  158.4982 H   0  0  0  0  0  0  0  0  0  0  0  0
  150.6251  143.8564  158.3116 H   0  0  0  0  0  0  0  0  0  0  0  0
  151.8938  144.2205  157.1330 H   0  0  0  0  0  0  0  0  0  0  0  0
  152.3748  140.7959  157.8367 H   0  0  0  0  0  0  0  0  0  0  0  0
  151.5791  138.9242  156.3933 H   0  0  0  0  0  0  0  0  0  0  0  0
  149.1016  139.4805  153.5903 H   0  0  0  0  0  0  0  0  0  0  0  0
  150.5109  138.5286  153.9870 H   0  0  0  0  0  0  0  0  0  0  0  0
  149.3126  137.6348  156.0364 H   0  0  0  0  0  0  0  0  0  0  0  0
  147.8861  138.5414  155.5889 H   0  0  0  0  0  0  0  0  0  0  0  0
  148.7335  136.9088  153.3956 H   0  0  0  0  0  0  0  0  0  0  0  0
  147.8350  135.1814  152.8563 H   0  0  0  0  0  0  0  0  0  0  0  0
  146.1042  133.6959  154.8574 H   0  0  0  0  0  0  0  0  0  0  0  0
  144.7769  132.9546  153.0526 H   0  0  0  0  0  0  0  0  0  0  0  0
  143.9242  134.8684  151.9512 H   0  0  0  0  0  0  0  0  0  0  0  0
  145.5508  135.4551  151.5333 H   0  0  0  0  0  0  0  0  0  0  0  0
  144.0167  133.2153  150.2332 H   0  0  0  0  0  0  0  0  0  0  0  0
  145.4663  134.0349  149.6478 H   0  0  0  0  0  0  0  0  0  0  0  0
  147.3494  133.7314  151.4837 H   0  0  0  0  0  0  0  0  0  0  0  0
  149.0835  131.4668  152.8932 H   0  0  0  0  0  0  0  0  0  0  0  0
  149.0607  132.3242  154.4305 H   0  0  0  0  0  0  0  0  0  0  0  0
  149.2376  133.2086  152.9248 H   0  0  0  0  0  0  0  0  0  0  0  0
  146.9176  130.3361  153.1644 H   0  0  0  0  0  0  0  0  0  0  0  0
  145.5501  131.1478  153.8914 H   0  0  0  0  0  0  0  0  0  0  0  0
  147.0155  130.9318  154.8145 H   0  0  0  0  0  0  0  0  0  0  0  0
  148.8541  141.7433  154.4988 H   0  0  0  0  0  0  0  0  0  0  0  0
  149.6845  143.3828  155.9004 H   0  0  0  0  0  0  0  0  0  0  0  0
  1  2  1  0  0  0  0
  1 23  1  0  0  0  0
  1 24  1  0  0  0  0
  1 25  1  0  0  0  0
  2 22  1  0  0  0  0
  2  3  2  0  0  0  0
  3  4  1  0  0  0  0
  3 26  1  0  0  0  0
  4  5  2  0  0  0  0
  4 27  1  0  0  0  0
  5  6  1  0  0  0  0
  5 21  1  0  0  0  0
  6  7  1  0  0  0  0
  6 28  1  0  0  0  0
  6 29  1  0  0  0  0
  7  8  1  0  0  0  0
  7 30  1  0  0  0  0
  7 31  1  0  0  0  0
  8  9  1  0  0  0  0
  8 32  1  0  0  0  0
  9 10  2  0  0  0  0
  9 11  1  0  0  0  0
 11 12  1  0  0  0  0
 11 33  1  0  0  0  0
 12 18  1  0  0  0  0
 12 13  1  0  0  0  0
 12 34  1  0  0  0  0
 13 17  1  0  0  0  0
 13 14  1  0  0  0  0
 13 35  1  0  0  0  0
 14 15  1  0  0  0  0
 14 36  1  0  0  0  0
 14 37  1  0  0  0  0
 15 16  1  0  0  0  0
 15 38  1  0  0  0  0
 15 39  1  0  0  0  0
 16 17  1  0  0  0  0
 17 18  1  0  0  0  0
 17 40  1  0  0  0  0
 18 19  1  0  0  0  0
 18 20  1  0  0  0  0
 19 41  1  0  0  0  0
 19 42  1  0  0  0  0
 19 43  1  0  0  0  0
 20 44  1  0  0  0  0
 20 45  1  0  0  0  0
 20 46  1  0  0  0  0
 21 22  2  0  0  0  0
 21 47  1  0  0  0  0
 22 48  1  0  0  0  0
M  CHG  1  22   1
M  END
> <s_m_source_file>
AV-unprocessed.smi

> <i_m_source_file_index>
767

> <i_lp_mmshare_version>
43012

> <i_f3d_flags>
0

> <s_epik_input>
W0NIM11jMVtjSF1bY0hdYyhbY0hdbjEpW0NIMl1bQ0gyXVtOSF1DKD1PKVtOSF1bQ0BIXTJDKFtDSDNdKShbQ0gzXSlbQ0BIXShbQ0BASF0yMylPW0NIMl1bQ0gyXTM=

> <s_epik_cmdline>
J2VwaWtfcHl0aG9uJywgJy1waCcsICc3LjAnLCAnLXRuJywgJzgnLCAnLW1hJywgJzIwMCcsICctbWV0YWxfYmluZGluZycsICctaW1hZScsICc8aW5maWxlLm1hZT4nLCAnLW9tYWUnLCAnPG91dGZpbGUubWFlPic=

> <r_epik_Ionization_Penalty>
1.41853

> <r_epik_Ionization_Penalty_Charging>
1.41848

> <r_epik_Ionization_Penalty_Neutral>
5.17407e-05

> <r_epik_State_Penalty>
1.50205

> <r_epik_Charging_Adjusted_Penalty>
2.92053

> <i_epik_Tot_Q>
1

> <i_epik_Tot_abs_Q>
1

> <r_epik_Metal_State_Penalty>
1.5544

> <b_epik_Metal_Only>
0

> <s_lp_Force_Field>
OPLS_2005

> <r_lp_Energy>
64.9812

> <b_lp_Chiralities_Consistent>
1

> <s_lp_Variant>
AV-unprocessed.smi:767-10

> <Gold.Version>
5.8.1

> <Gold.Id.Protein>
6NUR|6NUR_protein|mol2

> <Gold.PLP.Fitness>
47.0013

> <Gold.PLP.PLP>
-35.3854

> <Gold.PLP.part.hbond>
-3.0000

> <Gold.PLP.part.metal>
0.0000

> <Gold.PLP.part.buried>
-5.7903

> <Gold.PLP.part.nonpolar>
-28.3356

> <Gold.PLP.part.repulsive>
0.2939

> <Gold.PLP.ligand.clash>
0.0000

> <Gold.PLP.ligand.torsion>
0.2892

> <Gold.PLP.Chemscore.Hbond>
3.9760

> <Gold.PLP.Chemscore.CHOScore>
0.0000

> <Gold.PLP.Chemscore.Metal>
0.0000

> <Gold.Chemscore.Hbonds>
donor molecule, donor type, donor heavy atom, donor atom, acceptor molecule, acceptor atom, score
      L1  H     8    32       P1  7948  1.00
      L1  H    11    33       P1  7948  0.98
      L1  H    22    48       P1  8028  2.00

> <Gold.PLP.Chemscore.Internal.Correction>
0.2662

> <Gold.Rescore>
     Score         DG    S(hbond)    S(metal)    S(lipo)     H(rot)  DE(clash)    DE(int)     intcor
     22.01     -22.28       2.91        0.00      93.73       1.52       0.03       0.25       ----

> <Gold.Chemscore.Fitness>
22.0052

> <Gold.Chemscore.DG>
-22.2815

> <Gold.Chemscore.ZeroCoef>
-5.4800

> <Gold.Chemscore.Hbond>
2.9145

> <Gold.Chemscore.Metal>
0.0000

> <Gold.Chemscore.Lipo>
93.7328

> <Gold.Chemscore.Internal_Hbond>
0.0000

> <Gold.Chemscore.DEClash>
0.0282

> <Gold.Chemscore.DEInternal>
0.2481

> <Gold.Chemscore.Rot>
1.5233

> <Gold.Chemscore.Internal.Correction>
   9.000000E+99

> <Gold.Chemscore.Hbonds>
donor molecule, donor type, donor heavy atom, donor atom, acceptor molecule, acceptor atom, score
      L1  H     8    32       P1  7948  0.98
      L1  H    11    33       P1  7948  0.93
      L1  H    22    48       P1  8028  0.97

> <Gold.Chemscore.Hbond.Weighted>
-9.7343

> <Gold.Chemscore.Metal.Weighted>
-0.0000

> <Gold.Chemscore.Lipo.Weighted>
-10.9667

> <Gold.Chemscore.Internal_Hbond.Weighted>
0.0000

> <Gold.Chemscore.DEClash.Weighted>
0.0282

> <Gold.Chemscore.DEInternal.Weighted>
0.2481

> <Gold.Chemscore.Rot.Weighted>
3.8995

> <Gold.Chemscore.Internal.Correction.Weighted>
   9.000000E+99

> <Gold.Protein.RotatedTorsions>
[ 6907 6896 6895 6894 ] final  -29.43 input  -60.11 | X-H torsion
[ 7974 7965 7964 7962 ] final  -51.50 input  175.53 | X-H torsion
[ 8008 7997 7996 7995 ] final -127.84 input   59.86 | X-H torsion
[ 10167 10162 10161 10158 ] final -168.44 input  -65.29 | X-H torsion
[ 10718 10713 10712 10709 ] final -166.01 input   66.30 | X-H torsion
[ 10763 10752 10751 10750 ] final  -17.94 input  -60.55 | X-H torsion
[ 11005 11000 10999 10996 ] final    3.22 input  -57.11 | X-H torsion

> <Gold.Protein.ActiveResidues>
 VAL166  LYS551  ARG553  GLY616  TRP617  ASP618  TYR619  PRO620  LYS621  CYS622 
 ASP623  PHE694  ASN695  SER759  ASP760  ASP761  ALA762  ILE779  LEU786  VAL792 
 PHE793  MET794  SER795  GLU796  ALA797  LYS798  CYS799  TRP800  GLU811  SER814 

> <Gold.Protein.RotatedAtoms>
  151.1193  135.0070  159.8530 H   0  0  0  0  0  0  0  0  0  0  0  0  # atno 6907 bound_to 6896
  152.5447  134.1742  159.8619 H   0  0  0  0  0  0  0  0  0  0  0  0  # atno 6908 bound_to 6896
  151.1799  133.4687  159.2627 H   0  0  0  0  0  0  0  0  0  0  0  0  # atno 6909 bound_to 6896
  145.9183  140.7856  142.9660 H   0  0  0  0  0  0  0  0  0  0  0  0  # atno 7974 bound_to 7965
  155.2529  140.0433  157.2988 H   0  0  0  0  0  0  0  0  0  0  0  0  # atno 8008 bound_to 7997
  154.5758  140.2387  155.8094 H   0  0  0  0  0  0  0  0  0  0  0  0  # atno 8009 bound_to 7997
  156.2157  140.2985  155.9841 H   0  0  0  0  0  0  0  0  0  0  0  0  # atno 8010 bound_to 7997
  139.5985  144.1060  152.1716 H   0  0  0  0  0  0  0  0  0  0  0  0  # atno 10167 bound_to 10162
  156.6616  130.9048  151.3030 H   0  0  0  0  0  0  0  0  0  0  0  0  # atno 10718 bound_to 10713
  153.5816  135.7005  153.5461 H   0  0  0  0  0  0  0  0  0  0  0  0  # atno 10763 bound_to 10752
  153.3256  135.4061  155.1453 H   0  0  0  0  0  0  0  0  0  0  0  0  # atno 10764 bound_to 10752
  154.8616  135.3706  154.5343 H   0  0  0  0  0  0  0  0  0  0  0  0  # atno 10765 bound_to 10752
  140.5955  133.9884  155.8108 H   0  0  0  0  0  0  0  0  0  0  0  0  # atno 11005 bound_to 11000
  144.6750  140.1934  143.7394 LP  0  0  0  0  0  0  0  0  0  0  0  0  # atno 17320 bound_to 7965
  145.8583  139.2210  143.1731 LP  0  0  0  0  0  0  0  0  0  0  0  0  # atno 17321 bound_to 7965
  140.0651  144.5825  150.7233 LP  0  0  0  0  0  0  0  0  0  0  0  0  # atno 17342 bound_to 10162
  140.7231  143.2608  151.4211 LP  0  0  0  0  0  0  0  0  0  0  0  0  # atno 17343 bound_to 10162
  157.7107  130.9437  150.1081 LP  0  0  0  0  0  0  0  0  0  0  0  0  # atno 17370 bound_to 10713
  156.2006  130.3660  149.8793 LP  0  0  0  0  0  0  0  0  0  0  0  0  # atno 17371 bound_to 10713
  141.0906  133.9922  157.3242 LP  0  0  0  0  0  0  0  0  0  0  0  0  # atno 17394 bound_to 11000
  139.9255  135.0201  156.8219 LP  0  0  0  0  0  0  0  0  0  0  0  0  # atno 17395 bound_to 11000

$$$$
