AV-unprocessed.smi:1605|AV-procd|sdf|6459|dock1
  -GOLD-   22720 7113D 1   1.00000     0.00000
 Structure written by MMmdl.
 50 52  0  0  0  0  0  0  0  0  1 V2000
  151.2059  133.5175  156.2609 C   0  0  0  0  0  0  0  0  0  0  0  0
  151.0983  134.5850  157.1899 O   0  0  0  0  0  0  0  0  0  0  0  0
  150.1040  135.5476  156.8631 C   0  0  0  0  0  0  0  0  0  0  0  0
  150.2658  136.0669  155.4210 C   0  0  0  0  0  0  0  0  0  0  0  0
  149.3158  137.2489  155.1596 C   0  0  0  0  0  0  0  0  0  0  0  0
  149.5162  138.3546  156.0985 N   0  0  0  0  0  0  0  0  0  0  0  0
  148.6528  139.4923  155.7610 C   0  0  0  0  0  0  0  0  0  0  0  0
  149.2346  140.5233  154.7675 C   0  0  2  0  0  0  0  0  0  0  0  0
  149.9667  139.8357  153.7722 O   0  0  0  0  0  0  0  0  0  0  0  0
  150.0822  141.6585  155.3733 C   0  0  0  0  0  0  0  0  0  0  0  0
  151.0246  141.1707  156.3641 N   0  0  0  0  0  0  0  0  0  0  0  0
  151.7706  140.0513  156.2953 C   0  0  0  0  0  0  0  0  0  0  0  0
  152.5742  139.7909  157.3226 N   0  0  0  0  0  0  0  0  0  0  0  0
  152.3208  140.8681  158.1544 C   0  0  0  0  0  0  0  0  0  0  0  0
  152.8567  141.1958  159.4190 C   0  0  0  0  0  0  0  0  0  0  0  0
  152.4473  142.3651  160.0988 C   0  0  0  0  0  0  0  0  0  0  0  0
  153.0497  142.6783  161.4570 C   0  0  0  0  0  0  0  0  0  0  0  0
  151.4869  143.2284  159.5127 C   0  0  0  0  0  0  0  0  0  0  0  0
  151.0340  144.4914  160.2237 C   0  0  0  0  0  0  0  0  0  0  0  0
  150.9404  142.9155  158.2505 C   0  0  0  0  0  0  0  0  0  0  0  0
  151.3560  141.7490  157.5842 C   0  0  0  0  0  0  0  0  0  0  0  0
  149.2849  137.8634  157.4618 C   0  0  0  0  0  0  0  0  0  0  0  0
  150.2426  136.7230  157.8440 C   0  0  0  0  0  0  0  0  0  0  0  0
  151.9513  132.8051  156.6140 H   0  0  0  0  0  0  0  0  0  0  0  0
  151.5226  133.8651  155.2777 H   0  0  0  0  0  0  0  0  0  0  0  0
  150.2595  132.9852  156.1578 H   0  0  0  0  0  0  0  0  0  0  0  0
  149.1108  135.1120  156.9887 H   0  0  0  0  0  0  0  0  0  0  0  0
  151.2961  136.3853  155.2568 H   0  0  0  0  0  0  0  0  0  0  0  0
  150.0647  135.2756  154.6994 H   0  0  0  0  0  0  0  0  0  0  0  0
  149.4785  137.6003  154.1399 H   0  0  0  0  0  0  0  0  0  0  0  0
  148.2812  136.9048  155.2059 H   0  0  0  0  0  0  0  0  0  0  0  0
  147.7293  139.1231  155.3119 H   0  0  0  0  0  0  0  0  0  0  0  0
  148.3363  139.9979  156.6745 H   0  0  0  0  0  0  0  0  0  0  0  0
  148.3853  140.9806  154.2582 H   0  0  0  0  0  0  0  0  0  0  0  0
  149.5296  139.9603  152.9434 H   0  0  0  0  0  0  0  0  0  0  0  0
  150.6463  142.1694  154.5922 H   0  0  0  0  0  0  0  0  0  0  0  0
  149.4447  142.4020  155.8525 H   0  0  0  0  0  0  0  0  0  0  0  0
  151.7224  139.3913  155.4415 H   0  0  0  0  0  0  0  0  0  0  0  0
  153.5890  140.5383  159.8642 H   0  0  0  0  0  0  0  0  0  0  0  0
  152.2698  142.7364  162.2168 H   0  0  0  0  0  0  0  0  0  0  0  0
  153.5796  143.6309  161.4294 H   0  0  0  0  0  0  0  0  0  0  0  0
  153.7593  141.9096  161.7650 H   0  0  0  0  0  0  0  0  0  0  0  0
  150.2932  145.0349  159.6366 H   0  0  0  0  0  0  0  0  0  0  0  0
  151.8798  145.1579  160.3946 H   0  0  0  0  0  0  0  0  0  0  0  0
  150.5838  144.2478  161.1863 H   0  0  0  0  0  0  0  0  0  0  0  0
  150.2084  143.5637  157.7921 H   0  0  0  0  0  0  0  0  0  0  0  0
  149.3989  138.6622  158.1893 H   0  0  0  0  0  0  0  0  0  0  0  0
  148.2551  137.5160  157.5591 H   0  0  0  0  0  0  0  0  0  0  0  0
  150.0376  136.3875  158.8610 H   0  0  0  0  0  0  0  0  0  0  0  0
  151.2687  137.0935  157.8390 H   0  0  0  0  0  0  0  0  0  0  0  0
  1  2  1  0  0  0  0
  1 24  1  0  0  0  0
  1 25  1  0  0  0  0
  1 26  1  0  0  0  0
  2  3  1  0  0  0  0
  3 23  1  0  0  0  0
  3  4  1  0  0  0  0
  3 27  1  0  0  0  0
  4  5  1  0  0  0  0
  4 28  1  0  0  0  0
  4 29  1  0  0  0  0
  5  6  1  0  0  0  0
  5 30  1  0  0  0  0
  5 31  1  0  0  0  0
  6  7  1  0  0  0  0
  6 22  1  0  0  0  0
  7  8  1  0  0  0  0
  7 32  1  0  0  0  0
  7 33  1  0  0  0  0
  8  9  1  0  0  0  0
  8 10  1  0  0  0  0
  8 34  1  0  0  0  0
  9 35  1  0  0  0  0
 10 11  1  0  0  0  0
 10 36  1  0  0  0  0
 10 37  1  0  0  0  0
 11 21  1  0  0  0  0
 11 12  1  0  0  0  0
 12 13  2  0  0  0  0
 12 38  1  0  0  0  0
 13 14  1  0  0  0  0
 14 21  2  0  0  0  0
 14 15  1  0  0  0  0
 15 16  2  0  0  0  0
 15 39  1  0  0  0  0
 16 17  1  0  0  0  0
 16 18  1  0  0  0  0
 17 40  1  0  0  0  0
 17 41  1  0  0  0  0
 17 42  1  0  0  0  0
 18 19  1  0  0  0  0
 18 20  2  0  0  0  0
 19 43  1  0  0  0  0
 19 44  1  0  0  0  0
 19 45  1  0  0  0  0
 20 21  1  0  0  0  0
 20 46  1  0  0  0  0
 22 23  1  0  0  0  0
 22 47  1  0  0  0  0
 22 48  1  0  0  0  0
 23 49  1  0  0  0  0
 23 50  1  0  0  0  0
M  END
> <s_m_source_file>
AV-unprocessed.smi

> <i_m_source_file_index>
1605

> <i_lp_mmshare_version>
43012

> <i_f3d_flags>
0

> <s_epik_input>
W0NIM11PW0NIXTFbQ0gyXVtDSDJdTihbQ0gyXVtDSDJdMSlbQ0gyXVtDQEhdKFtPSF0pW0NIMl1uKFtjSF1uMiljKGMyMylbY0hdYyhbQ0gzXSljKFtjSF0zKVtDSDNd

> <s_epik_cmdline>
J2VwaWtfcHl0aG9uJywgJy1waCcsICc3LjAnLCAnLXRuJywgJzgnLCAnLW1hJywgJzIwMCcsICctbWV0YWxfYmluZGluZycsICctaW1hZScsICc8aW5maWxlLm1hZT4nLCAnLW9tYWUnLCAnPG91dGZpbGUubWFlPic=

> <r_epik_Ionization_Penalty>
2.02119

> <r_epik_Ionization_Penalty_Charging>
0

> <r_epik_Ionization_Penalty_Neutral>
2.02119

> <r_epik_State_Penalty>
2.11303

> <r_epik_Charging_Adjusted_Penalty>
2.11303

> <i_epik_Tot_Q>
0

> <i_epik_Tot_abs_Q>
0

> <r_epik_Metal_State_Penalty>
2.04251

> <b_epik_Metal_Only>
0

> <s_lp_Force_Field>
OPLS_2005

> <r_lp_Energy>
37.9414

> <b_lp_Chiralities_Consistent>
1

> <s_lp_Variant>
AV-unprocessed.smi:1605-9

> <Gold.Version>
5.8.1

> <Gold.Id.Protein>
6NUR|6NUR_protein|mol2

> <Gold.PLP.Fitness>
49.4472

> <Gold.PLP.PLP>
-41.8369

> <Gold.PLP.part.hbond>
-4.0000

> <Gold.PLP.part.metal>
0.0000

> <Gold.PLP.part.buried>
-5.9385

> <Gold.PLP.part.nonpolar>
-31.7638

> <Gold.PLP.part.repulsive>
0.0052

> <Gold.PLP.ligand.clash>
0.0000

> <Gold.PLP.ligand.torsion>
1.0790

> <Gold.PLP.Chemscore.Hbond>
3.2240

> <Gold.PLP.Chemscore.CHOScore>
0.0000

> <Gold.PLP.Chemscore.Metal>
0.0000

> <Gold.Chemscore.Hbonds>
donor molecule, donor type, donor heavy atom, donor atom, acceptor molecule, acceptor atom, score
      L1  H     9    35       P1  7957  0.98
      P1  H  6896  6908       L1     2  0.17
      P1  H  7989  7998       L1     9  0.85
      P1  H  7997  8009       L1    13  1.00

> <Gold.PLP.Chemscore.Internal.Correction>
0.0963

> <Gold.Rescore>
     Score         DG    S(hbond)    S(metal)    S(lipo)     H(rot)  DE(clash)    DE(int)     intcor
     17.48     -19.78       2.20        0.00     106.46       2.14       0.31       2.00       ----

> <Gold.Chemscore.Fitness>
17.4812

> <Gold.Chemscore.DG>
-19.7822

> <Gold.Chemscore.ZeroCoef>
-5.4800

> <Gold.Chemscore.Hbond>
2.1960

> <Gold.Chemscore.Metal>
0.0000

> <Gold.Chemscore.Lipo>
106.4588

> <Gold.Chemscore.Internal_Hbond>
0.0000

> <Gold.Chemscore.DEClash>
0.3055

> <Gold.Chemscore.DEInternal>
1.9956

> <Gold.Chemscore.Rot>
2.1438

> <Gold.Chemscore.Internal.Correction>
   9.000000E+99

> <Gold.Chemscore.Hbonds>
donor molecule, donor type, donor heavy atom, donor atom, acceptor molecule, acceptor atom, score
      L1  H     9    35       P1  7957  0.93
      P1  H  6896  6908       L1     2  0.10
      P1  H  7989  7998       L1     9  0.13
      P1  H  7997  8009       L1    13  0.16

> <Gold.Chemscore.Hbond.Weighted>
-7.3347

> <Gold.Chemscore.Metal.Weighted>
-0.0000

> <Gold.Chemscore.Lipo.Weighted>
-12.4557

> <Gold.Chemscore.Internal_Hbond.Weighted>
0.0000

> <Gold.Chemscore.DEClash.Weighted>
0.3055

> <Gold.Chemscore.DEInternal.Weighted>
1.9956

> <Gold.Chemscore.Rot.Weighted>
5.4881

> <Gold.Chemscore.Internal.Correction.Weighted>
   9.000000E+99

> <Gold.Protein.RotatedTorsions>
[ 6907 6896 6895 6894 ] final  128.46 input  -60.11 | X-H torsion
[ 7974 7965 7964 7962 ] final  -95.28 input  175.53 | X-H torsion
[ 8008 7997 7996 7995 ] final -171.59 input   59.86 | X-H torsion
[ 10167 10162 10161 10158 ] final -101.85 input  -65.29 | X-H torsion
[ 10718 10713 10712 10709 ] final   76.43 input   66.30 | X-H torsion
[ 10763 10752 10751 10750 ] final  -85.46 input  -60.55 | X-H torsion
[ 11005 11000 10999 10996 ] final  110.59 input  -57.11 | X-H torsion

> <Gold.Protein.ActiveResidues>
 VAL166  LYS551  ARG553  GLY616  TRP617  ASP618  TYR619  PRO620  LYS621  CYS622 
 ASP623  PHE694  ASN695  SER759  ASP760  ASP761  ALA762  ILE779  LEU786  VAL792 
 PHE793  MET794  SER795  GLU796  ALA797  LYS798  CYS799  TRP800  GLU811  SER814 

> <Gold.Protein.RotatedAtoms>
  152.3717  133.6427  159.6091 H   0  0  0  0  0  0  0  0  0  0  0  0  # atno 6907 bound_to 6896
  150.7673  133.9260  159.3421 H   0  0  0  0  0  0  0  0  0  0  0  0  # atno 6908 bound_to 6896
  151.7081  135.0919  160.0314 H   0  0  0  0  0  0  0  0  0  0  0  0  # atno 6909 bound_to 6896
  145.3621  140.9493  143.2495 H   0  0  0  0  0  0  0  0  0  0  0  0  # atno 7974 bound_to 7965
  155.9335  140.1095  157.1113 H   0  0  0  0  0  0  0  0  0  0  0  0  # atno 8008 bound_to 7997
  154.4075  140.1233  156.4899 H   0  0  0  0  0  0  0  0  0  0  0  0  # atno 8009 bound_to 7997
  155.7050  140.3471  155.4951 H   0  0  0  0  0  0  0  0  0  0  0  0  # atno 8010 bound_to 7997
  140.2369  143.3566  152.0837 H   0  0  0  0  0  0  0  0  0  0  0  0  # atno 10167 bound_to 10162
  157.6673  130.9774  150.1496 H   0  0  0  0  0  0  0  0  0  0  0  0  # atno 10718 bound_to 10713
  154.6113  135.5484  153.7476 H   0  0  0  0  0  0  0  0  0  0  0  0  # atno 10763 bound_to 10752
  153.0196  135.6390  154.1574 H   0  0  0  0  0  0  0  0  0  0  0  0  # atno 10764 bound_to 10752
  154.1511  135.2902  155.3115 H   0  0  0  0  0  0  0  0  0  0  0  0  # atno 10765 bound_to 10752
  139.8885  134.9488  156.6302 H   0  0  0  0  0  0  0  0  0  0  0  0  # atno 11005 bound_to 11000
  144.8639  139.5137  143.6799 LP  0  0  0  0  0  0  0  0  0  0  0  0  # atno 17320 bound_to 7965
  146.2923  139.7174  142.9152 LP  0  0  0  0  0  0  0  0  0  0  0  0  # atno 17321 bound_to 7965
  139.5090  144.6860  151.5885 LP  0  0  0  0  0  0  0  0  0  0  0  0  # atno 17342 bound_to 10162
  140.6143  143.9378  150.6477 LP  0  0  0  0  0  0  0  0  0  0  0  0  # atno 17343 bound_to 10162
  156.2299  130.3681  149.8457 LP  0  0  0  0  0  0  0  0  0  0  0  0  # atno 17370 bound_to 10713
  156.6287  130.8657  151.3491 LP  0  0  0  0  0  0  0  0  0  0  0  0  # atno 17371 bound_to 10713
  140.7672  133.8768  155.8464 LP  0  0  0  0  0  0  0  0  0  0  0  0  # atno 17394 bound_to 11000
  140.9872  134.1326  157.4441 LP  0  0  0  0  0  0  0  0  0  0  0  0  # atno 17395 bound_to 11000

$$$$
