AV-unprocessed.smi:2151|AV-procd|sdf|8759|dock1
  -GOLD-   2272011533D 1   1.00000     0.00000
 Structure written by MMmdl.
 39 40  0  0  0  0  0  0  0  0  1 V2000
  150.0063  139.7952  154.5853 C   0  0  0  0  0  0  0  0  0  0  0  0
  150.9676  138.7398  155.1508 C   0  0  1  0  0  0  0  0  0  0  0  0
  151.0438  138.8980  156.6022 N   0  0  0  0  0  0  0  0  0  0  0  0
  152.1679  138.9471  157.3339 C   0  0  0  0  0  0  0  0  0  0  0  0
  153.2969  138.8449  156.8522 O   0  0  0  0  0  0  0  0  0  0  0  0
  151.9726  139.1144  158.8474 C   0  0  0  0  0  0  0  0  0  0  0  0
  152.5101  140.3827  159.3680 N   0  0  0  0  0  0  0  0  0  0  0  0
  151.9786  141.5727  158.8330 C   0  0  0  0  0  0  0  0  0  0  0  0
  152.3909  142.7967  159.2149 C   0  0  0  0  0  0  0  0  0  0  0  0
  151.7540  144.0617  158.6608 C   0  0  0  0  0  0  0  0  0  0  0  0
  151.8989  144.1351  157.3373 F   0  0  0  0  0  0  0  0  0  0  0  0
  150.4507  144.0708  158.9373 F   0  0  0  0  0  0  0  0  0  0  0  0
  152.3002  145.1507  159.2032 F   0  0  0  0  0  0  0  0  0  0  0  0
  153.4070  142.8416  160.2482 C   0  0  0  0  0  0  0  0  0  0  0  0
  153.9154  141.7130  160.7806 C   0  0  0  0  0  0  0  0  0  0  0  0
  153.4696  140.3889  160.3412 C   0  0  0  0  0  0  0  0  0  0  0  0
  153.9296  139.3508  160.8174 O   0  0  0  0  0  0  0  0  0  0  0  0
  150.5264  137.3064  154.7937 C   0  0  2  0  0  0  0  0  0  0  0  0
  149.0716  136.9776  155.1370 C   0  0  0  0  0  0  0  0  0  0  0  0
  149.1181  135.4718  155.2514 C   0  0  0  0  0  0  0  0  0  0  0  0
  150.4700  135.2536  155.9233 C   0  0  0  0  0  0  0  0  0  0  0  0
  151.2908  136.3487  155.5237 O   0  0  0  0  0  0  0  0  0  0  0  0
  149.9417  139.7284  153.4989 H   0  0  0  0  0  0  0  0  0  0  0  0
  150.3424  140.8031  154.8314 H   0  0  0  0  0  0  0  0  0  0  0  0
  148.9997  139.6720  154.9864 H   0  0  0  0  0  0  0  0  0  0  0  0
  151.9473  138.9123  154.7020 H   0  0  0  0  0  0  0  0  0  0  0  0
  150.1643  138.9819  157.0911 H   0  0  0  0  0  0  0  0  0  0  0  0
  150.9110  139.0303  159.0882 H   0  0  0  0  0  0  0  0  0  0  0  0
  152.4449  138.2664  159.3451 H   0  0  0  0  0  0  0  0  0  0  0  0
  151.2025  141.4267  158.0955 H   0  0  0  0  0  0  0  0  0  0  0  0
  153.7692  143.7960  160.6011 H   0  0  0  0  0  0  0  0  0  0  0  0
  154.6714  141.7844  161.5489 H   0  0  0  0  0  0  0  0  0  0  0  0
  150.6885  137.1171  153.7310 H   0  0  0  0  0  0  0  0  0  0  0  0
  148.7928  137.4165  156.0964 H   0  0  0  0  0  0  0  0  0  0  0  0
  148.3658  137.3264  154.3825 H   0  0  0  0  0  0  0  0  0  0  0  0
  148.2860  135.0567  155.8206 H   0  0  0  0  0  0  0  0  0  0  0  0
  149.1135  135.0213  154.2579 H   0  0  0  0  0  0  0  0  0  0  0  0
  150.3646  135.2792  157.0085 H   0  0  0  0  0  0  0  0  0  0  0  0
  150.9192  134.2987  155.6495 H   0  0  0  0  0  0  0  0  0  0  0  0
  1  2  1  0  0  0  0
  1 23  1  0  0  0  0
  1 24  1  0  0  0  0
  1 25  1  0  0  0  0
  2  3  1  0  0  0  0
  2 18  1  0  0  0  0
  2 26  1  0  0  0  0
  3  4  1  0  0  0  0
  3 27  1  0  0  0  0
  4  5  2  0  0  0  0
  4  6  1  0  0  0  0
  6  7  1  0  0  0  0
  6 28  1  0  0  0  0
  6 29  1  0  0  0  0
  7 16  1  0  0  0  0
  7  8  1  0  0  0  0
  8  9  2  0  0  0  0
  8 30  1  0  0  0  0
  9 10  1  0  0  0  0
  9 14  1  0  0  0  0
 10 11  1  0  0  0  0
 10 12  1  0  0  0  0
 10 13  1  0  0  0  0
 14 15  2  0  0  0  0
 14 31  1  0  0  0  0
 15 16  1  0  0  0  0
 15 32  1  0  0  0  0
 16 17  2  0  0  0  0
 18 22  1  0  0  0  0
 18 19  1  0  0  0  0
 18 33  1  0  0  0  0
 19 20  1  0  0  0  0
 19 34  1  0  0  0  0
 19 35  1  0  0  0  0
 20 21  1  0  0  0  0
 20 36  1  0  0  0  0
 20 37  1  0  0  0  0
 21 22  1  0  0  0  0
 21 38  1  0  0  0  0
 21 39  1  0  0  0  0
M  END
> <s_m_source_file>
AV-unprocessed.smi

> <i_m_source_file_index>
2151

> <i_lp_mmshare_version>
43012

> <i_f3d_flags>
0

> <s_epik_input>
TzFbQ0gyXVtDSDJdW0NIMl1bQ0BIXTFbQ0BIXShbQ0gzXSlbTkhdQyg9TylbQ0gyXW4yW2NIXWMoQyhGKShGKUYpW2NIXVtjSF1jMj1P

> <s_epik_cmdline>
J2VwaWtfcHl0aG9uJywgJy1waCcsICc3LjAnLCAnLXRuJywgJzgnLCAnLW1hJywgJzIwMCcsICctbWV0YWxfYmluZGluZycsICctaW1hZScsICc8aW5maWxlLm1hZT4nLCAnLW9tYWUnLCAnPG91dGZpbGUubWFlPic=

> <r_lp_tautomer_probability>
1

> <r_epik_Ionization_Penalty>
4.20109e-08

> <r_epik_Ionization_Penalty_Charging>
1.89977e-08

> <r_epik_Ionization_Penalty_Neutral>
2.30132e-08

> <r_epik_State_Penalty>
-0

> <r_epik_Charging_Adjusted_Penalty>
1.89977e-08

> <i_epik_Tot_Q>
0

> <i_epik_Tot_abs_Q>
0

> <r_epik_Metal_State_Penalty>
-0

> <b_epik_Metal_Only>
0

> <s_lp_Force_Field>
OPLS_2005

> <r_lp_Energy>
30.2794

> <b_lp_Chiralities_Consistent>
1

> <s_lp_Variant>
AV-unprocessed.smi:2151-2

> <Gold.Version>
5.8.1

> <Gold.Id.Protein>
6NUR|6NUR_protein|mol2

> <Gold.PLP.Fitness>
52.5404

> <Gold.PLP.PLP>
-47.2229

> <Gold.PLP.part.hbond>
-1.6846

> <Gold.PLP.part.metal>
0.0000

> <Gold.PLP.part.buried>
-5.7351

> <Gold.PLP.part.nonpolar>
-40.3790

> <Gold.PLP.part.repulsive>
0.1249

> <Gold.PLP.ligand.clash>
0.0000

> <Gold.PLP.ligand.torsion>
0.3001

> <Gold.PLP.Chemscore.Hbond>
1.9357

> <Gold.PLP.Chemscore.CHOScore>
0.0000

> <Gold.PLP.Chemscore.Metal>
0.0000

> <Gold.Chemscore.Hbonds>
donor molecule, donor type, donor heavy atom, donor atom, acceptor molecule, acceptor atom, score
      P1  H  7997  8009       L1     5  1.00
      P1  H 10752 10763       L1    22  1.00

> <Gold.PLP.Chemscore.Internal.Correction>
0.1104

> <Gold.Rescore>
     Score         DG    S(hbond)    S(metal)    S(lipo)     H(rot)  DE(clash)    DE(int)     intcor
     16.84     -17.17       1.76        0.00      89.58       1.82       0.05       0.28       ----

> <Gold.Chemscore.Fitness>
16.8392

> <Gold.Chemscore.DG>
-17.1676

> <Gold.Chemscore.ZeroCoef>
-5.4800

> <Gold.Chemscore.Hbond>
1.7583

> <Gold.Chemscore.Metal>
0.0000

> <Gold.Chemscore.Lipo>
89.5839

> <Gold.Chemscore.Internal_Hbond>
0.0000

> <Gold.Chemscore.DEClash>
0.0522

> <Gold.Chemscore.DEInternal>
0.2761

> <Gold.Chemscore.Rot>
1.8228

> <Gold.Chemscore.Internal.Correction>
   9.000000E+99

> <Gold.Chemscore.Hbonds>
donor molecule, donor type, donor heavy atom, donor atom, acceptor molecule, acceptor atom, score
      P1  H  7997  8009       L1     5  0.95
      P1  H 10752 10763       L1    22  0.52

> <Gold.Chemscore.Hbond.Weighted>
-5.8727

> <Gold.Chemscore.Metal.Weighted>
-0.0000

> <Gold.Chemscore.Lipo.Weighted>
-10.4813

> <Gold.Chemscore.Internal_Hbond.Weighted>
0.0000

> <Gold.Chemscore.DEClash.Weighted>
0.0522

> <Gold.Chemscore.DEInternal.Weighted>
0.2761

> <Gold.Chemscore.Rot.Weighted>
4.6665

> <Gold.Chemscore.Internal.Correction.Weighted>
   9.000000E+99

> <Gold.Protein.RotatedTorsions>
[ 6907 6896 6895 6894 ] final  -21.57 input  -60.11 | X-H torsion
[ 7974 7965 7964 7962 ] final  -16.40 input  175.53 | X-H torsion
[ 8008 7997 7996 7995 ] final -167.76 input   59.86 | X-H torsion
[ 10167 10162 10161 10158 ] final   62.35 input  -65.29 | X-H torsion
[ 10718 10713 10712 10709 ] final -174.18 input   66.30 | X-H torsion
[ 10763 10752 10751 10750 ] final   75.83 input  -60.55 | X-H torsion
[ 11005 11000 10999 10996 ] final -105.72 input  -57.11 | X-H torsion

> <Gold.Protein.ActiveResidues>
 VAL166  LYS551  ARG553  GLY616  TRP617  ASP618  TYR619  PRO620  LYS621  CYS622 
 ASP623  PHE694  ASN695  SER759  ASP760  ASP761  ALA762  ILE779  LEU786  VAL792 
 PHE793  MET794  SER795  GLU796  ALA797  LYS798  CYS799  TRP800  GLU811  SER814 

> <Gold.Protein.RotatedAtoms>
  151.2313  135.0555  159.8988 H   0  0  0  0  0  0  0  0  0  0  0  0  # atno 6907 bound_to 6896
  152.5404  134.0533  159.8130 H   0  0  0  0  0  0  0  0  0  0  0  0  # atno 6908 bound_to 6896
  151.0714  133.5415  159.2658 H   0  0  0  0  0  0  0  0  0  0  0  0  # atno 6909 bound_to 6896
  146.1989  140.3631  142.8430 H   0  0  0  0  0  0  0  0  0  0  0  0  # atno 7974 bound_to 7965
  155.8821  140.1010  157.1478 H   0  0  0  0  0  0  0  0  0  0  0  0  # atno 8008 bound_to 7997
  154.4006  140.1327  156.4273 H   0  0  0  0  0  0  0  0  0  0  0  0  # atno 8009 bound_to 7997
  155.7631  140.3462  155.5210 H   0  0  0  0  0  0  0  0  0  0  0  0  # atno 8010 bound_to 7997
  140.1449  144.4518  150.6791 H   0  0  0  0  0  0  0  0  0  0  0  0  # atno 10167 bound_to 10162
  156.7813  130.9484  151.3120 H   0  0  0  0  0  0  0  0  0  0  0  0  # atno 10718 bound_to 10713
  153.0682  135.4974  154.8247 H   0  0  0  0  0  0  0  0  0  0  0  0  # atno 10763 bound_to 10752
  154.6985  135.2997  154.9379 H   0  0  0  0  0  0  0  0  0  0  0  0  # atno 10764 bound_to 10752
  154.0110  135.6754  153.4818 H   0  0  0  0  0  0  0  0  0  0  0  0  # atno 10765 bound_to 10752
  141.1039  133.8832  157.1769 H   0  0  0  0  0  0  0  0  0  0  0  0  # atno 11005 bound_to 11000
  144.8640  140.7180  143.6089 LP  0  0  0  0  0  0  0  0  0  0  0  0  # atno 17320 bound_to 7965
  145.3551  139.1696  143.4414 LP  0  0  0  0  0  0  0  0  0  0  0  0  # atno 17321 bound_to 7965
  140.6738  143.2296  151.5559 LP  0  0  0  0  0  0  0  0  0  0  0  0  # atno 17342 bound_to 10162
  139.5454  144.2536  152.1431 LP  0  0  0  0  0  0  0  0  0  0  0  0  # atno 17343 bound_to 10162
  157.6645  130.8995  149.9902 LP  0  0  0  0  0  0  0  0  0  0  0  0  # atno 17370 bound_to 10713
  156.1216  130.3646  149.9877 LP  0  0  0  0  0  0  0  0  0  0  0  0  # atno 17371 bound_to 10713
  139.9902  135.0067  156.9956 LP  0  0  0  0  0  0  0  0  0  0  0  0  # atno 17394 bound_to 11000
  140.4951  134.1154  155.7240 LP  0  0  0  0  0  0  0  0  0  0  0  0  # atno 17395 bound_to 11000

$$$$
