#       Name:                AV-unprocessed.smi:1164
#       Creating user name   scv26
#       Creation time:       Fri Mar 27 03:50:57 2020


#       File generated by GOLD software.
#

@<TRIPOS>MOLECULE
AV-unprocessed.smi:1164
    38    38     1
SMALL
NO_CHARGES


@<TRIPOS>ATOM
      1 ****        -2.0525  -3.4304   0.0979 C.3            1 S1                 0.0000
      2 ****        -2.0182  -1.8920   0.0672 C.3            1 S1                 0.0000
      3 ****        -2.7847  -1.3995  -1.1788 C.3            1 S1                 0.0000
      4 ****        -2.6704  -1.3500   1.3563 C.3            1 S1                 0.0000
      5 ****        -0.6056  -1.4982   0.0007 N.am           1 S1                 0.0000
      6 ****        -0.0837  -0.2603  -0.0630 C.2            1 S1                 0.0000
      7 ****        -0.7617   0.7676  -0.0879 O.2            1 S1                 0.0000
      8 ****         1.4503  -0.1942  -0.1165 C.3            1 S1                 0.0000
      9 ****         1.9909   1.1681   0.0015 N.am           1 S1                 0.0000
     10 ****         2.3318   1.7473  -1.2113 N.2            1 S1                 0.0000
     11 ****         2.8066   2.9464  -1.2427 C.2            1 S1                 0.0000
     12 ****         3.1292   3.4819  -2.4657 O.3            1 S1                 0.0000
     13 ****         2.9960   3.7086  -0.0279 C.2            1 S1                 0.0000
     14 ****         2.6649   3.1343   1.1493 C.2            1 S1                 0.0000
     15 ****         2.1254   1.7750   1.2207 C.2            1 S1                 0.0000
     16 ****         1.8184   1.2264   2.2788 O.2            1 S1                 0.0000
     17 ****         3.4529   4.3504  -2.2831 H              1 S1                 0.0000
     18 ****        -3.0756  -3.8043   0.1528 H              1 S1                 0.0000
     19 ****        -1.5138  -3.8239   0.9609 H              1 S1                 0.0000
     20 ****        -1.5964  -3.8568  -0.7965 H              1 S1                 0.0000
     21 ****        -2.3075  -1.7384  -2.0990 H              1 S1                 0.0000
     22 ****        -2.8472  -0.3122  -1.2207 H              1 S1                 0.0000
     23 ****        -3.8081  -1.7759  -1.1833 H              1 S1                 0.0000
     24 ****        -3.6935  -1.7126   1.4606 H              1 S1                 0.0000
     25 ****        -2.7151  -0.2609   1.3668 H              1 S1                 0.0000
     26 ****        -2.1192  -1.6656   2.2429 H              1 S1                 0.0000
     27 ****         0.0549  -2.2619   0.0099 H              1 S1                 0.0000
     28 ****         1.8627  -0.8287   0.6705 H              1 S1                 0.0000
     29 ****         1.7764  -0.6453  -1.0555 H              1 S1                 0.0000
     30 ****         3.3930   4.7122  -0.0697 H              1 S1                 0.0000
     31 ****         2.7995   3.6921   2.0644 H              1 S1                 0.0000
     32 ****        -1.7596   0.7092  -0.0604 LP             1 S1                 0.0000
     33 ****        -0.3143   1.6607  -0.1356 LP             1 S1                 0.0000
     34 ****         2.2096   1.2355  -2.0617 LP             1 S1                 0.0000
     35 ****         2.3204   3.5264  -3.0521 LP             1 S1                 0.0000
     36 ****         3.8352   2.9325  -2.9126 LP             1 S1                 0.0000
     37 ****         1.4523   0.2959   2.2717 LP             1 S1                 0.0000
     38 ****         1.9351   1.7112   3.1456 LP             1 S1                 0.0000
@<TRIPOS>BOND
    1    1    2 1     
    2    1   18 1     
    3    1   19 1     
    4    1   20 1     
    5    2    3 1     
    6    2    4 1     
    7    2    5 1     
    8    3   21 1     
    9    3   22 1     
   10    3   23 1     
   11    4   24 1     
   12    4   25 1     
   13    4   26 1     
   14    5    6 am    
   15    5   27 1     
   16    6    7 2     
   17    6    8 1     
   18    8   28 1     
   19    8   29 1     
   20    8    9 1     
   21    9   10 1     
   22    9   15 am    
   23   10   11 2     
   24   11   12 1     
   25   11   13 1     
   26   12   17 1     
   27   13   30 1     
   28   13   14 2     
   29   14   31 1     
   30   14   15 1     
   31   15   16 2     
   32    7   32 1     
   33    7   33 1     
   34   10   34 1     
   35   12   35 1     
   36   12   36 1     
   37   16   37 1     
   38   16   38 1     
@<TRIPOS>SUBSTRUCTURE
      1 S1             1
@<TRIPOS>SET
LONE_PAIRS      STATIC     ATOMS    <user>   **** ""
7 32 33 34 35 36 37 38
DONOR_HYDROGENS      STATIC     ATOMS    <user>   **** ""
2 27 17
ATOM$BLUE        STATIC     ATOMS    COLORGROUP SYSTEM
7 32 33 34 35 36 37 38
ATOM$RED        STATIC     ATOMS    COLORGROUP SYSTEM
2 27 17
