AV-unprocessed.smi:2440|AV-procd|sdf|9616|dock3
  -GOLD-   2272013253D 1   1.00000     0.00000
 Structure written by MMmdl.
 52 54  0  0  0  0  0  0  0  0  2 V2000
  147.8776  133.0206  152.0194 C   0  0  0  0  0  0  0  0  0  0  0  0
  146.5232  133.0813  151.3348 C   0  0  0  0  0  0  0  0  0  0  0  0
  145.9401  131.9027  150.8208 C   0  0  0  0  0  0  0  0  0  0  0  0
  144.7439  131.8722  150.1980 N   0  0  0  0  0  0  0  0  0  0  0  0
  144.0774  133.0365  150.0598 C   0  0  0  0  0  0  0  0  0  0  0  0
  144.5641  134.2700  150.5346 C   0  0  0  0  0  0  0  0  0  0  0  0
  145.8128  134.2989  151.2015 C   0  0  0  0  0  0  0  0  0  0  0  0
  146.4026  135.4966  151.6959 N   0  0  0  0  0  0  0  0  0  0  0  0
  145.7955  136.5811  152.2080 C   0  0  0  0  0  0  0  0  0  0  0  0
  144.5819  136.7073  152.3700 O   0  0  0  0  0  0  0  0  0  0  0  0
  146.6913  137.5201  152.5473 N   0  0  0  0  0  0  0  0  0  0  0  0
  146.3829  138.8206  153.1368 C   0  0  2  0  0  0  0  0  0  0  0  0
  147.5051  139.8227  152.8098 C   0  0  0  0  0  0  0  0  0  0  0  0
  147.2911  141.1546  153.5543 C   0  0  0  0  0  0  0  0  0  0  0  0
  147.2072  140.9559  155.0303 N   0  3  2  0  0  0  0  0  0  0  0  0
  148.4994  140.5943  155.7109 C   0  0  0  0  0  0  0  0  0  0  0  0
  148.4189  140.7967  157.2485 C   0  0  0  0  0  0  0  0  0  0  0  0
  149.7466  140.4995  157.9630 C   0  0  0  0  0  0  0  0  0  0  0  0
  150.8900  141.3426  157.3919 C   0  0  0  0  0  0  0  0  0  0  0  0
  151.0185  141.1077  155.8844 C   0  0  0  0  0  0  0  0  0  0  0  0
  149.6996  141.4083  155.1548 C   0  0  0  0  0  0  0  0  0  0  0  0
  146.0523  140.0606  155.3312 C   0  0  0  0  0  0  0  0  0  0  0  0
  146.2041  138.6813  154.6602 C   0  0  0  0  0  0  0  0  0  0  0  0
  148.2689  132.0029  152.0357 H   0  0  0  0  0  0  0  0  0  0  0  0
  147.7985  133.3674  153.0501 H   0  0  0  0  0  0  0  0  0  0  0  0
  148.5984  133.6501  151.4968 H   0  0  0  0  0  0  0  0  0  0  0  0
  146.4481  130.9536  150.9090 H   0  0  0  0  0  0  0  0  0  0  0  0
  143.1280  132.9866  149.5472 H   0  0  0  0  0  0  0  0  0  0  0  0
  143.9814  135.1625  150.3666 H   0  0  0  0  0  0  0  0  0  0  0  0
  147.4117  135.5025  151.7142 H   0  0  0  0  0  0  0  0  0  0  0  0
  147.6668  137.3187  152.3825 H   0  0  0  0  0  0  0  0  0  0  0  0
  145.4536  139.2172  152.7237 H   0  0  0  0  0  0  0  0  0  0  0  0
  148.4773  139.4024  153.0697 H   0  0  0  0  0  0  0  0  0  0  0  0
  147.5323  140.0055  151.7348 H   0  0  0  0  0  0  0  0  0  0  0  0
  148.0458  141.8868  153.2758 H   0  0  0  0  0  0  0  0  0  0  0  0
  146.3517  141.5961  153.2187 H   0  0  0  0  0  0  0  0  0  0  0  0
  148.7062  139.5400  155.5273 H   0  0  0  0  0  0  0  0  0  0  0  0
  148.1094  141.8190  157.4703 H   0  0  0  0  0  0  0  0  0  0  0  0
  147.6736  140.1399  157.6936 H   0  0  0  0  0  0  0  0  0  0  0  0
  149.6439  140.6919  159.0314 H   0  0  0  0  0  0  0  0  0  0  0  0
  149.9875  139.4404  157.8622 H   0  0  0  0  0  0  0  0  0  0  0  0
  150.7066  142.3996  157.5889 H   0  0  0  0  0  0  0  0  0  0  0  0
  151.8262  141.0905  157.8908 H   0  0  0  0  0  0  0  0  0  0  0  0
  151.8164  141.7316  155.4800 H   0  0  0  0  0  0  0  0  0  0  0  0
  151.3117  140.0735  155.6990 H   0  0  0  0  0  0  0  0  0  0  0  0
  149.8708  141.1862  154.1028 H   0  0  0  0  0  0  0  0  0  0  0  0
  149.4844  142.4758  155.2210 H   0  0  0  0  0  0  0  0  0  0  0  0
  145.8734  139.9583  156.3991 H   0  0  0  0  0  0  0  0  0  0  0  0
  145.1479  140.5372  154.9504 H   0  0  0  0  0  0  0  0  0  0  0  0
  145.3235  138.0736  154.8725 H   0  0  0  0  0  0  0  0  0  0  0  0
  147.0502  138.1472  155.0940 H   0  0  0  0  0  0  0  0  0  0  0  0
  146.9586  141.8582  155.4108 H   0  0  0  0  0  0  0  0  0  0  0  0
  1  2  1  0  0  0  0
  1 24  1  0  0  0  0
  1 25  1  0  0  0  0
  1 26  1  0  0  0  0
  2  7  1  0  0  0  0
  2  3  2  0  0  0  0
  3  4  1  0  0  0  0
  3 27  1  0  0  0  0
  4  5  2  0  0  0  0
  5  6  1  0  0  0  0
  5 28  1  0  0  0  0
  6  7  2  0  0  0  0
  6 29  1  0  0  0  0
  7  8  1  0  0  0  0
  8  9  1  0  0  0  0
  8 30  1  0  0  0  0
  9 10  2  0  0  0  0
  9 11  1  0  0  0  0
 11 12  1  0  0  0  0
 11 31  1  0  0  0  0
 12 23  1  0  0  0  0
 12 13  1  0  0  0  0
 12 32  1  0  0  0  0
 13 14  1  0  0  0  0
 13 33  1  0  0  0  0
 13 34  1  0  0  0  0
 14 15  1  0  0  0  0
 14 35  1  0  0  0  0
 14 36  1  0  0  0  0
 15 16  1  0  0  0  0
 15 22  1  0  0  0  0
 15 52  1  0  0  0  0
 16 21  1  0  0  0  0
 16 17  1  0  0  0  0
 16 37  1  0  0  0  0
 17 18  1  0  0  0  0
 17 38  1  0  0  0  0
 17 39  1  0  0  0  0
 18 19  1  0  0  0  0
 18 40  1  0  0  0  0
 18 41  1  0  0  0  0
 19 20  1  0  0  0  0
 19 42  1  0  0  0  0
 19 43  1  0  0  0  0
 20 21  1  0  0  0  0
 20 44  1  0  0  0  0
 20 45  1  0  0  0  0
 21 46  1  0  0  0  0
 21 47  1  0  0  0  0
 22 23  1  0  0  0  0
 22 48  1  0  0  0  0
 22 49  1  0  0  0  0
 23 50  1  0  0  0  0
 23 51  1  0  0  0  0
M  CHG  1  15   1
M  END
> <s_m_source_file>
AV-unprocessed.smi

> <i_m_source_file_index>
2440

> <i_lp_mmshare_version>
43012

> <i_f3d_flags>
0

> <s_epik_input>
W0NIM11jMVtjSF1uW2NIXVtjSF1jMVtOSF1DKD1PKVtOSF1bQ0hdMltDSDJdW0NIMl1OKFtDSDJdW0NIMl0yKVtDSF0zW0NIMl1bQ0gyXVtDSDJdW0NIMl1bQ0gyXTM=

> <s_epik_cmdline>
J2VwaWtfcHl0aG9uJywgJy1waCcsICc3LjAnLCAnLXRuJywgJzgnLCAnLW1hJywgJzIwMCcsICctbWV0YWxfYmluZGluZycsICctaW1hZScsICc8aW5maWxlLm1hZT4nLCAnLW9tYWUnLCAnPG91dGZpbGUubWFlPic=

> <r_epik_Ionization_Penalty>
0.180356

> <r_epik_Ionization_Penalty_Charging>
0.00171891

> <r_epik_Ionization_Penalty_Neutral>
0.178637

> <r_epik_State_Penalty>
0.173134

> <r_epik_Charging_Adjusted_Penalty>
0.174853

> <i_epik_Tot_Q>
1

> <i_epik_Tot_abs_Q>
1

> <r_epik_Metal_State_Penalty>
0.131816

> <b_epik_Metal_Only>
0

> <s_lp_Force_Field>
OPLS_2005

> <r_lp_Energy>
36.8114

> <b_lp_Chiralities_Consistent>
1

> <s_lp_Variant>
AV-unprocessed.smi:2440-2

> <Gold.Version>
5.8.1

> <Gold.Id.Protein>
6NUR|6NUR_protein|mol2

> <Gold.PLP.Fitness>
43.8713

> <Gold.PLP.PLP>
-34.6419

> <Gold.PLP.part.hbond>
-2.0000

> <Gold.PLP.part.metal>
0.0000

> <Gold.PLP.part.buried>
-0.1987

> <Gold.PLP.part.nonpolar>
-31.5715

> <Gold.PLP.part.repulsive>
0.4644

> <Gold.PLP.ligand.clash>
0.0000

> <Gold.PLP.ligand.torsion>
0.7508

> <Gold.PLP.Chemscore.Hbond>
2.0000

> <Gold.PLP.Chemscore.CHOScore>
1.5621

> <Gold.PLP.Chemscore.Metal>
0.0000

> <Gold.Chemscore.Hbonds>
donor molecule, donor type, donor heavy atom, donor atom, acceptor molecule, acceptor atom, score
      L1  H     8    30       P1  7948  1.00
      L1  H    11    31       P1  7948  1.00
      L1  C     3    27       P1 10747  0.63
      L1  C     5    28       P1 10186  0.93

> <Gold.PLP.Chemscore.Internal.Correction>
0.0449

> <Gold.Rescore>
     Score         DG    S(hbond)    S(metal)    S(lipo)     H(rot)  DE(clash)    DE(int)     intcor
     18.27     -20.58       1.95        0.00      99.17       1.17       1.66       0.66       ----

> <Gold.Chemscore.Fitness>
18.2653

> <Gold.Chemscore.DG>
-20.5814

> <Gold.Chemscore.ZeroCoef>
-5.4800

> <Gold.Chemscore.Hbond>
1.9455

> <Gold.Chemscore.Metal>
0.0000

> <Gold.Chemscore.Lipo>
99.1668

> <Gold.Chemscore.Internal_Hbond>
0.0000

> <Gold.Chemscore.DEClash>
1.6569

> <Gold.Chemscore.DEInternal>
0.6592

> <Gold.Chemscore.Rot>
1.1715

> <Gold.Chemscore.Internal.Correction>
   9.000000E+99

> <Gold.Chemscore.Hbonds>
donor molecule, donor type, donor heavy atom, donor atom, acceptor molecule, acceptor atom, score
      L1  H     8    30       P1  7948  0.97
      L1  H    11    31       P1  7948  0.95

> <Gold.Chemscore.Hbond.Weighted>
-6.4980

> <Gold.Chemscore.Metal.Weighted>
-0.0000

> <Gold.Chemscore.Lipo.Weighted>
-11.6025

> <Gold.Chemscore.Internal_Hbond.Weighted>
0.0000

> <Gold.Chemscore.DEClash.Weighted>
1.6569

> <Gold.Chemscore.DEInternal.Weighted>
0.6592

> <Gold.Chemscore.Rot.Weighted>
2.9991

> <Gold.Chemscore.Internal.Correction.Weighted>
   9.000000E+99

> <Gold.Protein.RotatedTorsions>
[ 6907 6896 6895 6894 ] final  -17.17 input  -60.11 | X-H torsion
[ 7974 7965 7964 7962 ] final   57.19 input  175.53 | X-H torsion
[ 8008 7997 7996 7995 ] final   -4.29 input   59.86 | X-H torsion
[ 10167 10162 10161 10158 ] final  -19.52 input  -65.29 | X-H torsion
[ 10718 10713 10712 10709 ] final -116.16 input   66.30 | X-H torsion
[ 10763 10752 10751 10750 ] final -163.92 input  -60.55 | X-H torsion
[ 11005 11000 10999 10996 ] final  -54.25 input  -57.11 | X-H torsion

> <Gold.Protein.ActiveResidues>
 VAL166  LYS551  ARG553  GLY616  TRP617  ASP618  TYR619  PRO620  LYS621  CYS622 
 ASP623  PHE694  ASN695  SER759  ASP760  ASP761  ALA762  ILE779  LEU786  VAL792 
 PHE793  MET794  SER795  GLU796  ALA797  LYS798  CYS799  TRP800  GLU811  SER814 

> <Gold.Protein.RotatedAtoms>
  151.2974  135.0759  159.9225 H   0  0  0  0  0  0  0  0  0  0  0  0  # atno 6907 bound_to 6896
  152.5304  133.9869  159.7843 H   0  0  0  0  0  0  0  0  0  0  0  0  # atno 6908 bound_to 6896
  151.0150  133.5879  159.2708 H   0  0  0  0  0  0  0  0  0  0  0  0  # atno 6909 bound_to 6896
  145.9317  139.3813  143.0417 H   0  0  0  0  0  0  0  0  0  0  0  0  # atno 7974 bound_to 7965
  154.6159  140.2488  155.7610 H   0  0  0  0  0  0  0  0  0  0  0  0  # atno 8008 bound_to 7997
  156.2398  140.2937  156.0362 H   0  0  0  0  0  0  0  0  0  0  0  0  # atno 8009 bound_to 7997
  155.1976  140.0393  157.2902 H   0  0  0  0  0  0  0  0  0  0  0  0  # atno 8010 bound_to 7997
  140.7269  143.4811  151.0117 H   0  0  0  0  0  0  0  0  0  0  0  0  # atno 10167 bound_to 10162
  156.0944  130.6120  150.8999 H   0  0  0  0  0  0  0  0  0  0  0  0  # atno 10718 bound_to 10713
  154.7077  135.3000  154.9245 H   0  0  0  0  0  0  0  0  0  0  0  0  # atno 10763 bound_to 10752
  154.0156  135.6689  153.4772 H   0  0  0  0  0  0  0  0  0  0  0  0  # atno 10764 bound_to 10752
  153.0730  135.5050  154.8258 H   0  0  0  0  0  0  0  0  0  0  0  0  # atno 10765 bound_to 10752
  141.1016  133.6617  156.4293 H   0  0  0  0  0  0  0  0  0  0  0  0  # atno 11005 bound_to 11000
  145.8417  140.9577  143.0796 LP  0  0  0  0  0  0  0  0  0  0  0  0  # atno 17320 bound_to 7965
  144.6766  140.0293  143.7483 LP  0  0  0  0  0  0  0  0  0  0  0  0  # atno 17321 bound_to 7965
  139.8509  143.7439  152.3178 LP  0  0  0  0  0  0  0  0  0  0  0  0  # atno 17342 bound_to 10162
  139.7621  144.7503  151.0348 LP  0  0  0  0  0  0  0  0  0  0  0  0  # atno 17343 bound_to 10162
  157.6102  131.0937  150.8809 LP  0  0  0  0  0  0  0  0  0  0  0  0  # atno 17370 bound_to 10713
  156.8950  130.5226  149.5285 LP  0  0  0  0  0  0  0  0  0  0  0  0  # atno 17371 bound_to 10713
  140.5006  134.6489  157.5247 LP  0  0  0  0  0  0  0  0  0  0  0  0  # atno 17394 bound_to 11000
  139.9870  134.7045  155.9756 LP  0  0  0  0  0  0  0  0  0  0  0  0  # atno 17395 bound_to 11000

$$$$
