AV-unprocessed.smi:87|AV-procd|sdf|823|dock8
  -GOLD-   2262017233D 1   1.00000     0.00000
 Structure written by MMmdl.
 58 60  0  0  0  0  0  0  0  0  1 V2000
  146.6547  134.0928  162.4869 C   0  0  0  0  0  0  0  0  0  0  0  0
  147.6484  135.2637  162.4802 C   0  0  0  0  0  0  0  0  0  0  0  0
  147.2193  136.4723  161.6135 C   0  0  0  0  0  0  0  0  0  0  0  0
  146.0544  137.2479  162.2733 C   0  0  0  0  0  0  0  0  0  0  0  0
  144.7341  136.4656  162.3409 C   0  0  0  0  0  0  0  0  0  0  0  0
  146.8261  136.0227  160.1826 C   0  0  0  0  0  0  0  0  0  0  0  0
  147.9095  135.3896  159.4221 N   0  0  0  0  0  0  0  0  0  0  0  0
  148.3019  134.0104  159.7244 C   0  0  0  0  0  0  0  0  0  0  0  0
  147.1159  133.0370  159.7127 C   0  0  0  0  0  0  0  0  0  0  0  0
  147.4412  131.7521  160.3486 C   0  0  0  0  0  0  0  0  0  0  0  0
  147.6969  130.7409  160.8492 N   0  0  0  0  0  0  0  0  0  0  0  0
  148.1869  135.8757  158.1821 C   0  0  0  0  0  0  0  0  0  0  0  0
  148.5753  135.0114  157.2057 N   0  0  0  0  0  0  0  0  0  0  0  0
  148.8294  135.4509  155.9704 C   0  0  0  0  0  0  0  0  0  0  0  0
  148.7657  136.6968  155.4997 N   0  0  0  0  0  0  0  0  0  0  0  0
  148.3964  137.5746  156.4750 C   0  0  0  0  0  0  0  0  0  0  0  0
  148.0902  137.2538  157.8290 C   0  0  0  0  0  0  0  0  0  0  0  0
  147.7643  138.4153  158.5211 N   0  0  0  0  0  0  0  0  0  0  0  0
  147.8476  139.3598  157.6253 C   0  0  0  0  0  0  0  0  0  0  0  0
  148.2406  138.9461  156.3732 N   0  0  0  0  0  0  0  0  0  0  0  0
  148.4079  139.7804  155.1956 C   0  0  0  0  0  0  0  0  0  0  0  0
  149.8629  139.8624  154.6765 C   0  0  1  0  0  0  0  0  0  0  0  0
  149.8023  140.6564  153.5088 O   0  0  0  0  0  0  0  0  0  0  0  0
  150.8746  140.5381  155.6305 C   0  0  1  0  0  0  0  0  0  0  0  0
  150.4998  141.9358  156.1333 C   0  0  0  0  0  0  0  0  0  0  0  0
  151.1943  142.0500  157.4817 C   0  0  0  0  0  0  0  0  0  0  0  0
  151.6230  140.6173  157.7966 C   0  0  0  0  0  0  0  0  0  0  0  0
  150.9174  139.8219  156.8569 O   0  0  0  0  0  0  0  0  0  0  0  0
  146.9636  133.3355  163.2075 H   0  0  0  0  0  0  0  0  0  0  0  0
  146.5888  133.6025  161.5166 H   0  0  0  0  0  0  0  0  0  0  0  0
  145.6551  134.4259  162.7677 H   0  0  0  0  0  0  0  0  0  0  0  0
  147.7611  135.5783  163.5156 H   0  0  0  0  0  0  0  0  0  0  0  0
  148.6318  134.9111  162.1673 H   0  0  0  0  0  0  0  0  0  0  0  0
  148.0662  137.1558  161.5482 H   0  0  0  0  0  0  0  0  0  0  0  0
  146.3419  137.5710  163.2746 H   0  0  0  0  0  0  0  0  0  0  0  0
  145.8507  138.1590  161.7137 H   0  0  0  0  0  0  0  0  0  0  0  0
  143.9331  137.1006  162.7200 H   0  0  0  0  0  0  0  0  0  0  0  0
  144.7997  135.6025  163.0021 H   0  0  0  0  0  0  0  0  0  0  0  0
  144.4341  136.1124  161.3538 H   0  0  0  0  0  0  0  0  0  0  0  0
  145.9541  135.3765  160.2563 H   0  0  0  0  0  0  0  0  0  0  0  0
  146.4926  136.8742  159.5928 H   0  0  0  0  0  0  0  0  0  0  0  0
  149.0657  133.6843  159.0177 H   0  0  0  0  0  0  0  0  0  0  0  0
  148.7565  133.9704  160.7152 H   0  0  0  0  0  0  0  0  0  0  0  0
  146.2650  133.4650  160.2431 H   0  0  0  0  0  0  0  0  0  0  0  0
  146.7942  132.8224  158.6937 H   0  0  0  0  0  0  0  0  0  0  0  0
  149.1251  134.6955  155.2572 H   0  0  0  0  0  0  0  0  0  0  0  0
  147.6368  140.3934  157.8590 H   0  0  0  0  0  0  0  0  0  0  0  0
  147.7605  139.3649  154.4217 H   0  0  0  0  0  0  0  0  0  0  0  0
  148.0261  140.7792  155.4116 H   0  0  0  0  0  0  0  0  0  0  0  0
  150.2202  138.8716  154.3949 H   0  0  0  0  0  0  0  0  0  0  0  0
  149.6079  140.0953  152.7740 H   0  0  0  0  0  0  0  0  0  0  0  0
  151.8719  140.5629  155.1861 H   0  0  0  0  0  0  0  0  0  0  0  0
  150.8066  142.7236  155.4461 H   0  0  0  0  0  0  0  0  0  0  0  0
  149.4210  142.0103  156.2777 H   0  0  0  0  0  0  0  0  0  0  0  0
  152.0589  142.7130  157.4382 H   0  0  0  0  0  0  0  0  0  0  0  0
  150.5093  142.4388  158.2361 H   0  0  0  0  0  0  0  0  0  0  0  0
  152.6954  140.4922  157.6400 H   0  0  0  0  0  0  0  0  0  0  0  0
  151.3901  140.3224  158.8198 H   0  0  0  0  0  0  0  0  0  0  0  0
  1  2  1  0  0  0  0
  1 29  1  0  0  0  0
  1 30  1  0  0  0  0
  1 31  1  0  0  0  0
  2  3  1  0  0  0  0
  2 32  1  0  0  0  0
  2 33  1  0  0  0  0
  3  4  1  0  0  0  0
  3  6  1  0  0  0  0
  3 34  1  0  0  0  0
  4  5  1  0  0  0  0
  4 35  1  0  0  0  0
  4 36  1  0  0  0  0
  5 37  1  0  0  0  0
  5 38  1  0  0  0  0
  5 39  1  0  0  0  0
  6  7  1  0  0  0  0
  6 40  1  0  0  0  0
  6 41  1  0  0  0  0
  7  8  1  0  0  0  0
  7 12  1  0  0  0  0
  8  9  1  0  0  0  0
  8 42  1  0  0  0  0
  8 43  1  0  0  0  0
  9 10  1  0  0  0  0
  9 44  1  0  0  0  0
  9 45  1  0  0  0  0
 10 11  3  0  0  0  0
 12 17  1  0  0  0  0
 12 13  2  0  0  0  0
 13 14  1  0  0  0  0
 14 15  2  0  0  0  0
 14 46  1  0  0  0  0
 15 16  1  0  0  0  0
 16 20  1  0  0  0  0
 16 17  2  0  0  0  0
 17 18  1  0  0  0  0
 18 19  2  0  0  0  0
 19 20  1  0  0  0  0
 19 47  1  0  0  0  0
 20 21  1  0  0  0  0
 21 22  1  0  0  0  0
 21 48  1  0  0  0  0
 21 49  1  0  0  0  0
 22 23  1  0  0  0  0
 22 24  1  0  0  0  0
 22 50  1  0  0  0  0
 23 51  1  0  0  0  0
 24 28  1  0  0  0  0
 24 25  1  0  0  0  0
 24 52  1  0  0  0  0
 25 26  1  0  0  0  0
 25 53  1  0  0  0  0
 25 54  1  0  0  0  0
 26 27  1  0  0  0  0
 26 55  1  0  0  0  0
 26 56  1  0  0  0  0
 27 28  1  0  0  0  0
 27 57  1  0  0  0  0
 27 58  1  0  0  0  0
M  END
> <s_m_source_file>
AV-unprocessed.smi

> <i_m_source_file_index>
87

> <i_lp_mmshare_version>
43012

> <i_f3d_flags>
0

> <s_epik_input>
W0NIM11bQ0gyXVtDSF0oW0NIMl1bQ0gzXSlbQ0gyXU4oW0NIMl1bQ0gyXUMjTiljKG5bY0hdbjEpYyhjMTIpbltjSF1uMltDSDJdW0NASF0oW09IXSlbQ0BASF0zW0NIMl1bQ0gyXVtDSDJdTzM=

> <s_epik_cmdline>
J2VwaWtfcHl0aG9uJywgJy1waCcsICc3LjAnLCAnLXRuJywgJzgnLCAnLW1hJywgJzIwMCcsICctbWV0YWxfYmluZGluZycsICctaW1hZScsICc8aW5maWxlLm1hZT4nLCAnLW9tYWUnLCAnPG91dGZpbGUubWFlPic=

> <r_lp_tautomer_probability>
1

> <r_epik_Ionization_Penalty>
0.000348566

> <r_epik_Ionization_Penalty_Charging>
0

> <r_epik_Ionization_Penalty_Neutral>
0.000348566

> <r_epik_State_Penalty>
-0

> <r_epik_Charging_Adjusted_Penalty>
0

> <i_epik_Tot_Q>
0

> <i_epik_Tot_abs_Q>
0

> <r_epik_Metal_State_Penalty>
-0

> <b_epik_Metal_Only>
0

> <s_lp_Force_Field>
OPLS_2005

> <r_lp_Energy>
38.5026

> <b_lp_Chiralities_Consistent>
1

> <s_lp_Variant>
AV-unprocessed.smi:87-4

> <Gold.Version>
5.8.1

> <Gold.Id.Protein>
6NUR|6NUR_protein|mol2

> <Gold.PLP.Fitness>
43.2568

> <Gold.PLP.PLP>
-38.7110

> <Gold.PLP.part.hbond>
-3.6708

> <Gold.PLP.part.metal>
0.0000

> <Gold.PLP.part.buried>
-4.0162

> <Gold.PLP.part.nonpolar>
-30.1069

> <Gold.PLP.part.repulsive>
0.0788

> <Gold.PLP.ligand.clash>
0.0000

> <Gold.PLP.ligand.torsion>
0.7423

> <Gold.PLP.Chemscore.Hbond>
1.6520

> <Gold.PLP.Chemscore.CHOScore>
0.0000

> <Gold.PLP.Chemscore.Metal>
0.0000

> <Gold.Chemscore.Hbonds>
donor molecule, donor type, donor heavy atom, donor atom, acceptor molecule, acceptor atom, score
      L1  H    23    51       P1  7957  0.85
      P1  H  7989  7998       L1    23  0.27
      P1  H  8011  8017       L1    23  0.52

> <Gold.PLP.Chemscore.Internal.Correction>
1.0745

> <Gold.Rescore>
     Score         DG    S(hbond)    S(metal)    S(lipo)     H(rot)  DE(clash)    DE(int)     intcor
      7.68     -10.79       0.96        0.00      91.78       3.37       0.05       3.06       ----

> <Gold.Chemscore.Fitness>
7.6785

> <Gold.Chemscore.DG>
-10.7879

> <Gold.Chemscore.ZeroCoef>
-5.4800

> <Gold.Chemscore.Hbond>
0.9551

> <Gold.Chemscore.Metal>
0.0000

> <Gold.Chemscore.Lipo>
91.7787

> <Gold.Chemscore.Internal_Hbond>
0.0000

> <Gold.Chemscore.DEClash>
0.0530

> <Gold.Chemscore.DEInternal>
3.0564

> <Gold.Chemscore.Rot>
3.3672

> <Gold.Chemscore.Internal.Correction>
   9.000000E+99

> <Gold.Chemscore.Hbonds>
donor molecule, donor type, donor heavy atom, donor atom, acceptor molecule, acceptor atom, score
      L1  H    23    51       P1  7957  0.84
      P1  H  7989  7998       L1    23  0.01
      P1  H  8011  8017       L1    23  0.04

> <Gold.Chemscore.Hbond.Weighted>
-3.1899

> <Gold.Chemscore.Metal.Weighted>
-0.0000

> <Gold.Chemscore.Lipo.Weighted>
-10.7381

> <Gold.Chemscore.Internal_Hbond.Weighted>
0.0000

> <Gold.Chemscore.DEClash.Weighted>
0.0530

> <Gold.Chemscore.DEInternal.Weighted>
3.0564

> <Gold.Chemscore.Rot.Weighted>
8.6201

> <Gold.Chemscore.Internal.Correction.Weighted>
   9.000000E+99

> <Gold.Protein.RotatedTorsions>
[ 6907 6896 6895 6894 ] final -107.74 input  -60.11 | X-H torsion
[ 7974 7965 7964 7962 ] final  136.06 input  175.53 | X-H torsion
[ 8008 7997 7996 7995 ] final  155.93 input   59.86 | X-H torsion
[ 10167 10162 10161 10158 ] final  127.01 input  -65.29 | X-H torsion
[ 10718 10713 10712 10709 ] final  -12.63 input   66.30 | X-H torsion
[ 10763 10752 10751 10750 ] final  -30.41 input  -60.55 | X-H torsion
[ 11005 11000 10999 10996 ] final  -94.83 input  -57.11 | X-H torsion

> <Gold.Protein.ActiveResidues>
 VAL166  LYS551  ARG553  GLY616  TRP617  ASP618  TYR619  PRO620  LYS621  CYS622 
 ASP623  PHE694  ASN695  SER759  ASP760  ASP761  ALA762  ILE779  LEU786  VAL792 
 PHE793  MET794  SER795  GLU796  ALA797  LYS798  CYS799  TRP800  GLU811  SER814 

> <Gold.Protein.RotatedAtoms>
  150.7461  133.9781  159.3567 H   0  0  0  0  0  0  0  0  0  0  0  0  # atno 6907 bound_to 6896
  151.7720  135.0782  160.0370 H   0  0  0  0  0  0  0  0  0  0  0  0  # atno 6908 bound_to 6896
  152.3332  133.5945  159.5860 H   0  0  0  0  0  0  0  0  0  0  0  0  # atno 6909 bound_to 6896
  144.9602  139.4719  143.5483 H   0  0  0  0  0  0  0  0  0  0  0  0  # atno 7974 bound_to 7965
  156.2451  140.1926  156.6878 H   0  0  0  0  0  0  0  0  0  0  0  0  # atno 8008 bound_to 7997
  154.6274  140.0600  156.9717 H   0  0  0  0  0  0  0  0  0  0  0  0  # atno 8009 bound_to 7997
  155.1765  140.3272  155.4385 H   0  0  0  0  0  0  0  0  0  0  0  0  # atno 8010 bound_to 7997
  139.5601  144.6875  151.4069 H   0  0  0  0  0  0  0  0  0  0  0  0  # atno 10167 bound_to 10162
  156.6418  130.4930  149.6092 H   0  0  0  0  0  0  0  0  0  0  0  0  # atno 10718 bound_to 10713
  153.7806  135.6905  153.4889 H   0  0  0  0  0  0  0  0  0  0  0  0  # atno 10763 bound_to 10752
  153.1814  135.4505  155.0031 H   0  0  0  0  0  0  0  0  0  0  0  0  # atno 10764 bound_to 10752
  154.8083  135.3366  154.7309 H   0  0  0  0  0  0  0  0  0  0  0  0  # atno 10765 bound_to 10752
  141.1459  133.7983  157.0352 H   0  0  0  0  0  0  0  0  0  0  0  0  # atno 11005 bound_to 11000
  146.3350  139.8746  142.8834 LP  0  0  0  0  0  0  0  0  0  0  0  0  # atno 17320 bound_to 7965
  145.2711  141.0109  143.3771 LP  0  0  0  0  0  0  0  0  0  0  0  0  # atno 17321 bound_to 7965
  140.6879  143.7930  150.7213 LP  0  0  0  0  0  0  0  0  0  0  0  0  # atno 17342 bound_to 10162
  140.1404  143.4446  152.2197 LP  0  0  0  0  0  0  0  0  0  0  0  0  # atno 17343 bound_to 10162
  156.2153  130.6704  151.1312 LP  0  0  0  0  0  0  0  0  0  0  0  0  # atno 17370 bound_to 10713
  157.7168  131.0705  150.6294 LP  0  0  0  0  0  0  0  0  0  0  0  0  # atno 17371 bound_to 10713
  140.0728  134.9692  157.1496 LP  0  0  0  0  0  0  0  0  0  0  0  0  # atno 17394 bound_to 11000
  140.3686  134.2415  155.7180 LP  0  0  0  0  0  0  0  0  0  0  0  0  # atno 17395 bound_to 11000

$$$$
