AV-unprocessed.smi:3145|AV-procd|sdf|11984|dock4
  -GOLD-   2272017393D 1   1.00000     0.00000
 Structure written by MMmdl.
 34 34  0  0  0  0  0  0  0  0  3 V2000
  144.2754  135.6258  150.5799 C   0  0  0  0  0  0  0  0  0  0  0  0
  145.6367  135.4643  151.2691 C   0  0  1  0  0  0  0  0  0  0  0  0
  146.3756  134.2169  150.7403 C   0  0  0  0  0  0  0  0  0  0  0  0
  145.6307  132.9895  150.9552 N   0  0  0  0  0  0  0  0  0  0  0  0
  146.0391  131.8398  151.5975 C   0  0  0  0  0  0  0  0  0  0  0  0
  145.0080  130.9477  151.5263 C   0  0  0  0  0  0  0  0  0  0  0  0
  143.9971  131.6540  150.8161 C   0  0  0  0  0  0  0  0  0  0  0  0
  144.3719  132.8775  150.4784 N   0  0  0  0  0  0  0  0  0  0  0  0
  146.4419  136.6888  151.0623 N   0  3  0  0  0  0  0  0  0  0  0  0
  145.9260  137.8962  151.7410 C   0  0  0  0  0  0  0  0  0  0  0  0
  146.3102  137.8868  153.2248 C   0  0  0  0  0  0  0  0  0  0  0  0
  145.9505  136.9443  153.9401 O   0  0  0  0  0  0  0  0  0  0  0  0
  147.0194  139.0051  153.5332 N   0  5  0  0  0  0  0  0  0  0  0  0
  147.0711  140.1998  152.6919 C   0  0  0  0  0  0  0  0  0  0  0  0
  147.8915  141.3103  153.3705 C   0  0  0  0  0  0  0  0  0  0  0  0
  149.2824  140.9348  153.6792 C   0  0  0  0  0  0  0  0  0  0  0  0
  150.3779  140.6427  153.9183 N   0  0  0  0  0  0  0  0  0  0  0  0
  143.6468  134.7498  150.7423 H   0  0  0  0  0  0  0  0  0  0  0  0
  144.3870  135.7607  149.5033 H   0  0  0  0  0  0  0  0  0  0  0  0
  143.7382  136.4908  150.9707 H   0  0  0  0  0  0  0  0  0  0  0  0
  145.4457  135.3370  152.3361 H   0  0  0  0  0  0  0  0  0  0  0  0
  146.5539  134.3147  149.6686 H   0  0  0  0  0  0  0  0  0  0  0  0
  147.3569  134.1239  151.2088 H   0  0  0  0  0  0  0  0  0  0  0  0
  147.0203  131.7512  152.0403 H   0  0  0  0  0  0  0  0  0  0  0  0
  144.9801  129.9423  151.9196 H   0  0  0  0  0  0  0  0  0  0  0  0
  143.0101  131.3159  150.5367 H   0  0  0  0  0  0  0  0  0  0  0  0
  147.3827  136.5176  151.3882 H   0  0  0  0  0  0  0  0  0  0  0  0
  146.3276  138.7793  151.2406 H   0  0  0  0  0  0  0  0  0  0  0  0
  144.8396  137.9417  151.6656 H   0  0  0  0  0  0  0  0  0  0  0  0
  147.5073  139.9870  151.7150 H   0  0  0  0  0  0  0  0  0  0  0  0
  146.0703  140.5779  152.4832 H   0  0  0  0  0  0  0  0  0  0  0  0
  147.9122  142.2099  152.7549 H   0  0  0  0  0  0  0  0  0  0  0  0
  147.4199  141.5868  154.3135 H   0  0  0  0  0  0  0  0  0  0  0  0
  146.4785  136.8926  150.0741 H   0  0  0  0  0  0  0  0  0  0  0  0
  1  2  1  0  0  0  0
  1 18  1  0  0  0  0
  1 19  1  0  0  0  0
  1 20  1  0  0  0  0
  2  3  1  0  0  0  0
  2  9  1  0  0  0  0
  2 21  1  0  0  0  0
  3  4  1  0  0  0  0
  3 22  1  0  0  0  0
  3 23  1  0  0  0  0
  4  8  1  0  0  0  0
  4  5  1  0  0  0  0
  5  6  2  0  0  0  0
  5 24  1  0  0  0  0
  6  7  1  0  0  0  0
  6 25  1  0  0  0  0
  7  8  2  0  0  0  0
  7 26  1  0  0  0  0
  9 10  1  0  0  0  0
  9 27  1  0  0  0  0
  9 34  1  0  0  0  0
 10 11  1  0  0  0  0
 10 28  1  0  0  0  0
 10 29  1  0  0  0  0
 11 12  2  0  0  0  0
 11 13  1  0  0  0  0
 13 14  1  0  0  0  0
 14 15  1  0  0  0  0
 14 30  1  0  0  0  0
 14 31  1  0  0  0  0
 15 16  1  0  0  0  0
 15 32  1  0  0  0  0
 15 33  1  0  0  0  0
 16 17  3  0  0  0  0
M  CHG  1   9   1
M  CHG  1  13  -1
M  END
> <s_m_source_file>
AV-unprocessed.smi

> <i_m_source_file_index>
3145

> <i_lp_mmshare_version>
43012

> <i_f3d_flags>
0

> <s_epik_input>
bjFbY0hdW2NIXVtjSF1uMVtDSDJdW0NAQEhdKFtDSDNdKVtOSF1bQ0gyXUMoPU8pW05IXVtDSDJdW0NIMl1DI04=

> <s_epik_cmdline>
J2VwaWtfcHl0aG9uJywgJy1waCcsICc3LjAnLCAnLXRuJywgJzgnLCAnLW1hJywgJzIwMCcsICctbWV0YWxfYmluZGluZycsICctaW1hZScsICc8aW5maWxlLm1hZT4nLCAnLW9tYWUnLCAnPG91dGZpbGUubWFlPic=

> <r_lp_tautomer_probability>
1

> <r_epik_Ionization_Penalty>
6.20835

> <r_epik_Ionization_Penalty_Charging>
6.20835

> <r_epik_Ionization_Penalty_Neutral>
3.57231e-06

> <r_epik_State_Penalty>
6.38139

> <r_epik_Charging_Adjusted_Penalty>
12.5897

> <i_epik_Tot_Q>
0

> <i_epik_Tot_abs_Q>
2

> <r_epik_Metal_State_Penalty>
2.31725

> <b_epik_Metal_Only>
1

> <s_lp_Force_Field>
OPLS_2005

> <r_lp_Energy>
1.97057

> <b_lp_Chiralities_Consistent>
1

> <s_lp_Variant>
AV-unprocessed.smi:3145-6

> <Gold.Version>
5.8.1

> <Gold.Id.Protein>
6NUR|6NUR_protein|mol2

> <Gold.PLP.Fitness>
44.3281

> <Gold.PLP.PLP>
-29.8311

> <Gold.PLP.part.hbond>
-1.9866

> <Gold.PLP.part.metal>
0.0000

> <Gold.PLP.part.buried>
-3.7076

> <Gold.PLP.part.nonpolar>
-23.4560

> <Gold.PLP.part.repulsive>
0.5717

> <Gold.PLP.ligand.clash>
0.2667

> <Gold.PLP.ligand.torsion>
0.2261

> <Gold.PLP.Chemscore.Hbond>
3.0000

> <Gold.PLP.Chemscore.CHOScore>
2.0000

> <Gold.PLP.Chemscore.Metal>
0.0000

> <Gold.Chemscore.Hbonds>
donor molecule, donor type, donor heavy atom, donor atom, acceptor molecule, acceptor atom, score
      L1  H     9    27       P1  7948  2.00
      P1  H  7989  7998       L1    17  0.34
      L1  C     5    24       P1 10747  0.25
      L1  C     7    26       P1 10952  0.87

> <Gold.PLP.Chemscore.Internal.Correction>
0.2160

> <Gold.Rescore>
     Score         DG    S(hbond)    S(metal)    S(lipo)     H(rot)  DE(clash)    DE(int)     intcor
      9.82     -12.45       1.99        0.00      64.07       2.79       0.00       2.63       ----

> <Gold.Chemscore.Fitness>
9.8223

> <Gold.Chemscore.DG>
-12.4530

> <Gold.Chemscore.ZeroCoef>
-5.4800

> <Gold.Chemscore.Hbond>
1.9855

> <Gold.Chemscore.Metal>
0.0000

> <Gold.Chemscore.Lipo>
64.0725

> <Gold.Chemscore.Internal_Hbond>
0.0000

> <Gold.Chemscore.DEClash>
0.0040

> <Gold.Chemscore.DEInternal>
2.6267

> <Gold.Chemscore.Rot>
2.7949

> <Gold.Chemscore.Internal.Correction>
   9.000000E+99

> <Gold.Chemscore.Hbonds>
donor molecule, donor type, donor heavy atom, donor atom, acceptor molecule, acceptor atom, score
      L1  H     9    27       P1  7948  0.99
      P1  H  7989  7998       L1    17  0.34

> <Gold.Chemscore.Hbond.Weighted>
-6.6316

> <Gold.Chemscore.Metal.Weighted>
-0.0000

> <Gold.Chemscore.Lipo.Weighted>
-7.4965

> <Gold.Chemscore.Internal_Hbond.Weighted>
0.0000

> <Gold.Chemscore.DEClash.Weighted>
0.0040

> <Gold.Chemscore.DEInternal.Weighted>
2.6267

> <Gold.Chemscore.Rot.Weighted>
7.1551

> <Gold.Chemscore.Internal.Correction.Weighted>
   9.000000E+99

> <Gold.Protein.RotatedTorsions>
[ 6907 6896 6895 6894 ] final   83.55 input  -60.11 | X-H torsion
[ 7974 7965 7964 7962 ] final  -22.38 input  175.53 | X-H torsion
[ 8008 7997 7996 7995 ] final -122.46 input   59.86 | X-H torsion
[ 10167 10162 10161 10158 ] final  -44.36 input  -65.29 | X-H torsion
[ 10718 10713 10712 10709 ] final -152.08 input   66.30 | X-H torsion
[ 10763 10752 10751 10750 ] final  147.59 input  -60.55 | X-H torsion
[ 11005 11000 10999 10996 ] final  102.78 input  -57.11 | X-H torsion

> <Gold.Protein.ActiveResidues>
 VAL166  LYS551  ARG553  GLY616  TRP617  ASP618  TYR619  PRO620  LYS621  CYS622 
 ASP623  PHE694  ASN695  SER759  ASP760  ASP761  ALA762  ILE779  LEU786  VAL792 
 PHE793  MET794  SER795  GLU796  ALA797  LYS798  CYS799  TRP800  GLU811  SER814 

> <Gold.Protein.RotatedAtoms>
  152.5330  134.2878  159.9031 H   0  0  0  0  0  0  0  0  0  0  0  0  # atno 6907 bound_to 6896
  151.2830  133.4194  159.2636 H   0  0  0  0  0  0  0  0  0  0  0  0  # atno 6908 bound_to 6896
  151.0267  134.9524  159.8145 H   0  0  0  0  0  0  0  0  0  0  0  0  # atno 6909 bound_to 6896
  146.1679  140.4471  142.8544 H   0  0  0  0  0  0  0  0  0  0  0  0  # atno 7974 bound_to 7965
  155.1645  140.0406  157.2850 H   0  0  0  0  0  0  0  0  0  0  0  0  # atno 8008 bound_to 7997
  154.6313  140.2524  155.7404 H   0  0  0  0  0  0  0  0  0  0  0  0  # atno 8009 bound_to 7997
  156.2486  140.2875  156.0665 H   0  0  0  0  0  0  0  0  0  0  0  0  # atno 8010 bound_to 7997
  140.6900  143.2934  151.3484 H   0  0  0  0  0  0  0  0  0  0  0  0  # atno 10167 bound_to 10162
  156.4677  130.8243  151.2474 H   0  0  0  0  0  0  0  0  0  0  0  0  # atno 10718 bound_to 10713
  154.0408  135.2890  155.3355 H   0  0  0  0  0  0  0  0  0  0  0  0  # atno 10763 bound_to 10752
  154.6930  135.5219  153.8422 H   0  0  0  0  0  0  0  0  0  0  0  0  # atno 10764 bound_to 10752
  153.0601  135.6610  154.0612 H   0  0  0  0  0  0  0  0  0  0  0  0  # atno 10765 bound_to 10752
  139.8779  134.9237  156.5110 H   0  0  0  0  0  0  0  0  0  0  0  0  # atno 11005 bound_to 11000
  144.8119  140.6401  143.6409 LP  0  0  0  0  0  0  0  0  0  0  0  0  # atno 17320 bound_to 7965
  145.4419  139.1534  143.3966 LP  0  0  0  0  0  0  0  0  0  0  0  0  # atno 17321 bound_to 7965
  139.6293  144.0752  152.2462 LP  0  0  0  0  0  0  0  0  0  0  0  0  # atno 17342 bound_to 10162
  140.0222  144.6144  150.7557 LP  0  0  0  0  0  0  0  0  0  0  0  0  # atno 17343 bound_to 10162
  157.7493  131.0086  150.3236 LP  0  0  0  0  0  0  0  0  0  0  0  0  # atno 17370 bound_to 10713
  156.3650  130.3853  149.7220 LP  0  0  0  0  0  0  0  0  0  0  0  0  # atno 17371 bound_to 10713
  140.8520  133.8125  155.9178 LP  0  0  0  0  0  0  0  0  0  0  0  0  # atno 17394 bound_to 11000
  140.9135  134.2231  157.4971 LP  0  0  0  0  0  0  0  0  0  0  0  0  # atno 17395 bound_to 11000

$$$$
