AV-unprocessed.smi:2747|AV-procd|sdf|10580|dock5
  -GOLD-   2272015 33D 1   1.00000     0.00000
 Structure written by MMmdl.
 23 24  0  0  0  0  0  0  0  0  2 V2000
  153.0307  139.8780  157.7971 O   0  5  0  0  0  0  0  0  0  0  0  0
  151.9599  140.3188  157.1795 C   0  0  1  0  0  0  0  0  0  0  0  0
  152.1346  141.8487  156.9697 C   0  0  0  0  0  0  0  0  0  0  0  0
  151.9333  142.6556  158.1713 N   0  0  0  0  0  0  0  0  0  0  0  0
  151.2221  143.8200  158.0955 N   0  0  0  0  0  0  0  0  0  0  0  0
  151.2000  144.3746  159.2709 N   0  0  0  0  0  0  0  0  0  0  0  0
  151.9167  143.5677  160.1386 C   0  0  0  0  0  0  0  0  0  0  0  0
  152.2137  143.6942  161.5140 C   0  0  0  0  0  0  0  0  0  0  0  0
  152.9850  142.7105  162.1717 C   0  0  0  0  0  0  0  0  0  0  0  0
  153.3285  142.9021  163.8543 Cl  0  0  0  0  0  0  0  0  0  0  0  0
  153.4682  141.5866  161.4588 C   0  0  0  0  0  0  0  0  0  0  0  0
  154.4128  140.3739  162.2479 Cl  0  0  0  0  0  0  0  0  0  0  0  0
  153.1807  141.4487  160.0866 C   0  0  0  0  0  0  0  0  0  0  0  0
  152.4115  142.4385  159.4514 C   0  0  0  0  0  0  0  0  0  0  0  0
  151.8572  139.5747  155.8259 C   0  0  0  0  0  0  0  0  0  0  0  0
  151.0302  140.2209  155.0019 F   0  0  0  0  0  0  0  0  0  0  0  0
  153.0577  139.5321  155.2461 F   0  0  0  0  0  0  0  0  0  0  0  0
  151.4250  138.3213  155.9845 F   0  0  0  0  0  0  0  0  0  0  0  0
  150.9796  140.2022  157.6445 H   0  0  0  0  0  0  0  0  0  0  0  0
  153.1293  142.0693  156.5789 H   0  0  0  0  0  0  0  0  0  0  0  0
  151.4348  142.1997  156.2101 H   0  0  0  0  0  0  0  0  0  0  0  0
  151.8497  144.5500  162.0631 H   0  0  0  0  0  0  0  0  0  0  0  0
  153.5387  140.5953  159.5295 H   0  0  0  0  0  0  0  0  0  0  0  0
  1  2  1  0  0  0  0
  2  3  1  0  0  0  0
  2 15  1  0  0  0  0
  2 19  1  0  0  0  0
  3  4  1  0  0  0  0
  3 20  1  0  0  0  0
  3 21  1  0  0  0  0
  4 14  1  0  0  0  0
  4  5  1  0  0  0  0
  5  6  2  0  0  0  0
  6  7  1  0  0  0  0
  7 14  2  0  0  0  0
  7  8  1  0  0  0  0
  8  9  2  0  0  0  0
  8 22  1  0  0  0  0
  9 10  1  0  0  0  0
  9 11  1  0  0  0  0
 11 12  1  0  0  0  0
 11 13  2  0  0  0  0
 13 14  1  0  0  0  0
 13 23  1  0  0  0  0
 15 16  1  0  0  0  0
 15 17  1  0  0  0  0
 15 18  1  0  0  0  0
M  CHG  1   1  -1
M  END
> <s_m_source_file>
AV-unprocessed.smi

> <i_m_source_file_index>
2747

> <i_lp_mmshare_version>
43012

> <i_f3d_flags>
0

> <s_epik_input>
RkMoRikoRilbQ0BIXShbT0hdKVtDSDJdbihubjEpYyhjMTIpW2NIXWMoQ2wpYyhDbClbY0hdMg==

> <s_epik_cmdline>
J2VwaWtfcHl0aG9uJywgJy1waCcsICc3LjAnLCAnLXRuJywgJzgnLCAnLW1hJywgJzIwMCcsICctbWV0YWxfYmluZGluZycsICctaW1hZScsICc8aW5maWxlLm1hZT4nLCAnLW9tYWUnLCAnPG91dGZpbGUubWFlPic=

> <r_lp_tautomer_probability>
1

> <r_epik_Ionization_Penalty>
1.2724

> <r_epik_Ionization_Penalty_Charging>
1.2724

> <r_epik_Ionization_Penalty_Neutral>
1.57383e-10

> <r_epik_State_Penalty>
1.34397

> <r_epik_Charging_Adjusted_Penalty>
2.61637

> <i_epik_Tot_Q>
-1

> <i_epik_Tot_abs_Q>
1

> <r_epik_Metal_State_Penalty>
1.34397

> <b_epik_Metal_Only>
0

> <s_lp_Force_Field>
OPLS_2005

> <r_lp_Energy>
12.5023

> <b_lp_Chiralities_Consistent>
1

> <s_lp_Variant>
AV-unprocessed.smi:2747-4

> <Gold.Version>
5.8.1

> <Gold.Id.Protein>
6NUR|6NUR_protein|mol2

> <Gold.PLP.Fitness>
46.2042

> <Gold.PLP.PLP>
-41.4788

> <Gold.PLP.part.hbond>
-1.0000

> <Gold.PLP.part.metal>
0.0000

> <Gold.PLP.part.buried>
-3.3003

> <Gold.PLP.part.nonpolar>
-36.3365

> <Gold.PLP.part.repulsive>
0.2593

> <Gold.PLP.ligand.clash>
0.0000

> <Gold.PLP.ligand.torsion>
0.6428

> <Gold.PLP.Chemscore.Hbond>
2.0000

> <Gold.PLP.Chemscore.CHOScore>
0.0000

> <Gold.PLP.Chemscore.Metal>
0.0000

> <Gold.Chemscore.Hbonds>
donor molecule, donor type, donor heavy atom, donor atom, acceptor molecule, acceptor atom, score
      P1  H  7997  8009       L1     1  2.00

> <Gold.PLP.Chemscore.Internal.Correction>
0.0112

> <Gold.Rescore>
     Score         DG    S(hbond)    S(metal)    S(lipo)     H(rot)  DE(clash)    DE(int)     intcor
     15.44     -17.41       1.00        0.00     102.97       1.35       0.10       1.87       ----

> <Gold.Chemscore.Fitness>
15.4396

> <Gold.Chemscore.DG>
-17.4149

> <Gold.Chemscore.ZeroCoef>
-5.4800

> <Gold.Chemscore.Hbond>
0.9989

> <Gold.Chemscore.Metal>
0.0000

> <Gold.Chemscore.Lipo>
102.9750

> <Gold.Chemscore.Internal_Hbond>
0.0000

> <Gold.Chemscore.DEClash>
0.1034

> <Gold.Chemscore.DEInternal>
1.8719

> <Gold.Chemscore.Rot>
1.3474

> <Gold.Chemscore.Internal.Correction>
   9.000000E+99

> <Gold.Chemscore.Hbonds>
donor molecule, donor type, donor heavy atom, donor atom, acceptor molecule, acceptor atom, score
      P1  H  7997  8009       L1     1  0.63

> <Gold.Chemscore.Hbond.Weighted>
-3.3362

> <Gold.Chemscore.Metal.Weighted>
-0.0000

> <Gold.Chemscore.Lipo.Weighted>
-12.0481

> <Gold.Chemscore.Internal_Hbond.Weighted>
0.0000

> <Gold.Chemscore.DEClash.Weighted>
0.1034

> <Gold.Chemscore.DEInternal.Weighted>
1.8719

> <Gold.Chemscore.Rot.Weighted>
3.4494

> <Gold.Chemscore.Internal.Correction.Weighted>
   9.000000E+99

> <Gold.Protein.RotatedTorsions>
[ 6907 6896 6895 6894 ] final    3.26 input  -60.11 | X-H torsion
[ 7974 7965 7964 7962 ] final -125.96 input  175.53 | X-H torsion
[ 8008 7997 7996 7995 ] final  176.49 input   59.86 | X-H torsion
[ 10167 10162 10161 10158 ] final  103.41 input  -65.29 | X-H torsion
[ 10718 10713 10712 10709 ] final  -33.94 input   66.30 | X-H torsion
[ 10763 10752 10751 10750 ] final  112.57 input  -60.55 | X-H torsion
[ 11005 11000 10999 10996 ] final   -8.31 input  -57.11 | X-H torsion

> <Gold.Protein.ActiveResidues>
 VAL166  LYS551  ARG553  GLY616  TRP617  ASP618  TYR619  PRO620  LYS621  CYS622 
 ASP623  PHE694  ASN695  SER759  ASP760  ASP761  ALA762  ILE779  LEU786  VAL792 
 PHE793  MET794  SER795  GLU796  ALA797  LYS798  CYS799  TRP800  GLU811  SER814 

> <Gold.Protein.RotatedAtoms>
  151.6221  135.1031  160.0103 H   0  0  0  0  0  0  0  0  0  0  0  0  # atno 6907 bound_to 6896
  152.4152  133.7022  159.6441 H   0  0  0  0  0  0  0  0  0  0  0  0  # atno 6908 bound_to 6896
  150.8040  133.8470  159.3236 H   0  0  0  0  0  0  0  0  0  0  0  0  # atno 6909 bound_to 6896
  144.9922  140.7743  143.4547 H   0  0  0  0  0  0  0  0  0  0  0  0  # atno 7974 bound_to 7965
  156.0759  140.1382  156.9772 H   0  0  0  0  0  0  0  0  0  0  0  0  # atno 8008 bound_to 7997
  154.4557  140.0962  156.6801 H   0  0  0  0  0  0  0  0  0  0  0  0  # atno 8009 bound_to 7997
  155.5154  140.3455  155.4398 H   0  0  0  0  0  0  0  0  0  0  0  0  # atno 8010 bound_to 7997
  139.7266  144.7046  151.0788 H   0  0  0  0  0  0  0  0  0  0  0  0  # atno 10167 bound_to 10162
  156.3565  130.4317  149.7659 H   0  0  0  0  0  0  0  0  0  0  0  0  # atno 10718 bound_to 10713
  153.4797  135.3682  155.2435 H   0  0  0  0  0  0  0  0  0  0  0  0  # atno 10763 bound_to 10752
  154.8755  135.3951  154.3714 H   0  0  0  0  0  0  0  0  0  0  0  0  # atno 10764 bound_to 10752
  153.4316  135.7082  153.6292 H   0  0  0  0  0  0  0  0  0  0  0  0  # atno 10765 bound_to 10752
  140.7221  133.8819  155.8829 H   0  0  0  0  0  0  0  0  0  0  0  0  # atno 11005 bound_to 11000
  145.2270  139.2132  143.5063 LP  0  0  0  0  0  0  0  0  0  0  0  0  # atno 17320 bound_to 7965
  146.3434  140.2139  142.8590 LP  0  0  0  0  0  0  0  0  0  0  0  0  # atno 17321 bound_to 7965
  140.7764  143.5097  150.9667 LP  0  0  0  0  0  0  0  0  0  0  0  0  # atno 17342 bound_to 10162
  139.8785  143.7102  152.3159 LP  0  0  0  0  0  0  0  0  0  0  0  0  # atno 17343 bound_to 10162
  156.4840  130.8054  151.3067 LP  0  0  0  0  0  0  0  0  0  0  0  0  # atno 17370 bound_to 10713
  157.7468  130.9997  150.2898 LP  0  0  0  0  0  0  0  0  0  0  0  0  # atno 17371 bound_to 10713
  140.9994  134.1170  157.4332 LP  0  0  0  0  0  0  0  0  0  0  0  0  # atno 17394 bound_to 11000
  139.8845  135.0064  156.6377 LP  0  0  0  0  0  0  0  0  0  0  0  0  # atno 17395 bound_to 11000

$$$$
