AV-unprocessed.smi:2741|AV-procd|sdf|10560|dock5
  -GOLD-   2272015 13D 1   1.00000     0.00000
 Structure written by MMmdl.
 39 40  0  0  0  0  0  0  0  0  1 V2000
  152.7763  139.2923  156.6060 O   0  0  0  0  0  0  0  0  0  0  0  0
  151.6123  139.3309  157.0077 C   0  0  0  0  0  0  0  0  0  0  0  0
  151.2976  139.5164  158.4992 C   0  0  0  0  0  0  0  0  0  0  0  0
  151.9305  140.7101  159.0854 N   0  0  0  0  0  0  0  0  0  0  0  0
  151.5514  141.9610  158.5596 C   0  0  0  0  0  0  0  0  0  0  0  0
  152.0708  143.1259  158.9923 C   0  0  0  0  0  0  0  0  0  0  0  0
  151.6034  144.4624  158.4371 C   0  0  0  0  0  0  0  0  0  0  0  0
  150.2812  144.5939  158.5460 F   0  0  0  0  0  0  0  0  0  0  0  0
  152.1772  145.4582  159.1106 F   0  0  0  0  0  0  0  0  0  0  0  0
  151.9324  144.5882  157.1509 F   0  0  0  0  0  0  0  0  0  0  0  0
  153.0355  143.0411  160.0710 C   0  0  0  0  0  0  0  0  0  0  0  0
  153.4041  141.8533  160.5896 C   0  0  0  0  0  0  0  0  0  0  0  0
  152.8478  140.5932  160.0919 C   0  0  0  0  0  0  0  0  0  0  0  0
  153.1846  139.5013  160.5507 O   0  0  0  0  0  0  0  0  0  0  0  0
  150.5516  139.2350  156.1920 N   0  0  0  0  0  0  0  0  0  0  0  0
  150.6191  139.0630  154.7448 C   0  0  0  0  0  0  0  0  0  0  0  0
  149.6070  139.9590  154.0051 C   0  0  2  0  0  0  0  0  0  0  0  0
  149.4385  141.3681  154.6051 C   0  0  0  0  0  0  0  0  0  0  0  0
  147.9501  141.7288  154.4688 C   0  0  0  0  0  0  0  0  0  0  0  0
  147.3213  140.5953  153.6530 C   0  0  2  0  0  0  0  0  0  0  0  0
  145.9661  140.3840  153.9878 O   0  0  0  0  0  0  0  0  0  0  0  0
  148.1904  139.3801  153.9684 C   0  0  0  0  0  0  0  0  0  0  0  0
  150.2138  139.5630  158.6138 H   0  0  0  0  0  0  0  0  0  0  0  0
  151.6030  138.6223  159.0461 H   0  0  0  0  0  0  0  0  0  0  0  0
  150.8112  141.9132  157.7741 H   0  0  0  0  0  0  0  0  0  0  0  0
  153.4750  143.9444  160.4675 H   0  0  0  0  0  0  0  0  0  0  0  0
  154.1281  141.8275  161.3908 H   0  0  0  0  0  0  0  0  0  0  0  0
  149.6303  139.2809  156.6030 H   0  0  0  0  0  0  0  0  0  0  0  0
  151.6322  139.2667  154.3938 H   0  0  0  0  0  0  0  0  0  0  0  0
  150.4226  138.0139  154.5212 H   0  0  0  0  0  0  0  0  0  0  0  0
  149.9317  140.0764  152.9698 H   0  0  0  0  0  0  0  0  0  0  0  0
  149.7238  141.3867  155.6577 H   0  0  0  0  0  0  0  0  0  0  0  0
  150.0739  142.0867  154.0862 H   0  0  0  0  0  0  0  0  0  0  0  0
  147.5025  141.7732  155.4629 H   0  0  0  0  0  0  0  0  0  0  0  0
  147.7983  142.7013  153.9996 H   0  0  0  0  0  0  0  0  0  0  0  0
  147.3943  140.8280  152.5895 H   0  0  0  0  0  0  0  0  0  0  0  0
  145.4717  140.2815  153.1890 H   0  0  0  0  0  0  0  0  0  0  0  0
  148.0818  138.5829  153.2326 H   0  0  0  0  0  0  0  0  0  0  0  0
  147.9273  138.9726  154.9463 H   0  0  0  0  0  0  0  0  0  0  0  0
  1  2  2  0  0  0  0
  2  3  1  0  0  0  0
  2 15  1  0  0  0  0
  3  4  1  0  0  0  0
  3 23  1  0  0  0  0
  3 24  1  0  0  0  0
  4 13  1  0  0  0  0
  4  5  1  0  0  0  0
  5  6  2  0  0  0  0
  5 25  1  0  0  0  0
  6  7  1  0  0  0  0
  6 11  1  0  0  0  0
  7  8  1  0  0  0  0
  7  9  1  0  0  0  0
  7 10  1  0  0  0  0
 11 12  2  0  0  0  0
 11 26  1  0  0  0  0
 12 13  1  0  0  0  0
 12 27  1  0  0  0  0
 13 14  2  0  0  0  0
 15 16  1  0  0  0  0
 15 28  1  0  0  0  0
 16 17  1  0  0  0  0
 16 29  1  0  0  0  0
 16 30  1  0  0  0  0
 17 22  1  0  0  0  0
 17 18  1  0  0  0  0
 17 31  1  0  0  0  0
 18 19  1  0  0  0  0
 18 32  1  0  0  0  0
 18 33  1  0  0  0  0
 19 20  1  0  0  0  0
 19 34  1  0  0  0  0
 19 35  1  0  0  0  0
 20 21  1  0  0  0  0
 20 22  1  0  0  0  0
 20 36  1  0  0  0  0
 21 37  1  0  0  0  0
 22 38  1  0  0  0  0
 22 39  1  0  0  0  0
M  END
> <s_m_source_file>
AV-unprocessed.smi

> <i_m_source_file_index>
2741

> <i_lp_mmshare_version>
43012

> <i_f3d_flags>
0

> <s_epik_input>
W09IXVtDQEBIXShbQ0gyXTEpW0NIMl1bQ0gyXVtDQEhdMVtDSDJdW05IXUMoPU8pW0NIMl1uMltjSF1jKEMoRikoRilGKVtjSF1bY0hdYzI9Tw==

> <s_epik_cmdline>
J2VwaWtfcHl0aG9uJywgJy1waCcsICc3LjAnLCAnLXRuJywgJzgnLCAnLW1hJywgJzIwMCcsICctbWV0YWxfYmluZGluZycsICctaW1hZScsICc8aW5maWxlLm1hZT4nLCAnLW9tYWUnLCAnPG91dGZpbGUubWFlPic=

> <r_lp_tautomer_probability>
1

> <r_epik_Ionization_Penalty>
1.17551e-06

> <r_epik_Ionization_Penalty_Charging>
1.78841e-08

> <r_epik_Ionization_Penalty_Neutral>
1.15762e-06

> <r_epik_State_Penalty>
-0

> <r_epik_Charging_Adjusted_Penalty>
1.78841e-08

> <i_epik_Tot_Q>
0

> <i_epik_Tot_abs_Q>
0

> <r_epik_Metal_State_Penalty>
-0

> <b_epik_Metal_Only>
0

> <s_lp_Force_Field>
OPLS_2005

> <r_lp_Energy>
33.0279

> <b_lp_Chiralities_Consistent>
1

> <s_lp_Variant>
AV-unprocessed.smi:2741-3

> <Gold.Version>
5.8.1

> <Gold.Id.Protein>
6NUR|6NUR_protein|mol2

> <Gold.PLP.Fitness>
54.9809

> <Gold.PLP.PLP>
-50.1448

> <Gold.PLP.part.hbond>
-2.0000

> <Gold.PLP.part.metal>
0.0000

> <Gold.PLP.part.buried>
-3.1469

> <Gold.PLP.part.nonpolar>
-44.9048

> <Gold.PLP.part.repulsive>
0.0523

> <Gold.PLP.ligand.clash>
0.4045

> <Gold.PLP.ligand.torsion>
0.4107

> <Gold.PLP.Chemscore.Hbond>
2.0000

> <Gold.PLP.Chemscore.CHOScore>
0.0000

> <Gold.PLP.Chemscore.Metal>
0.0000

> <Gold.Chemscore.Hbonds>
donor molecule, donor type, donor heavy atom, donor atom, acceptor molecule, acceptor atom, score
      L1  H    21    37       P1 10175  0.83
      P1  H  7997  8008       L1     1  1.00

> <Gold.PLP.Chemscore.Internal.Correction>
0.0620

> <Gold.Rescore>
     Score         DG    S(hbond)    S(metal)    S(lipo)     H(rot)  DE(clash)    DE(int)     intcor
     16.64     -17.42       1.99        0.00      99.43       2.48       0.29       0.49       ----

> <Gold.Chemscore.Fitness>
16.6401

> <Gold.Chemscore.DG>
-17.4223

> <Gold.Chemscore.ZeroCoef>
-5.4800

> <Gold.Chemscore.Hbond>
1.9939

> <Gold.Chemscore.Metal>
0.0000

> <Gold.Chemscore.Lipo>
99.4288

> <Gold.Chemscore.Internal_Hbond>
0.0000

> <Gold.Chemscore.DEClash>
0.2887

> <Gold.Chemscore.DEInternal>
0.4935

> <Gold.Chemscore.Rot>
2.4807

> <Gold.Chemscore.Internal.Correction>
   9.000000E+99

> <Gold.Chemscore.Hbonds>
donor molecule, donor type, donor heavy atom, donor atom, acceptor molecule, acceptor atom, score
      L1  H    21    37       P1 10175  0.81
      P1  H  7997  8008       L1     1  1.00

> <Gold.Chemscore.Hbond.Weighted>
-6.6598

> <Gold.Chemscore.Metal.Weighted>
-0.0000

> <Gold.Chemscore.Lipo.Weighted>
-11.6332

> <Gold.Chemscore.Internal_Hbond.Weighted>
0.0000

> <Gold.Chemscore.DEClash.Weighted>
0.2887

> <Gold.Chemscore.DEInternal.Weighted>
0.4935

> <Gold.Chemscore.Rot.Weighted>
6.3507

> <Gold.Chemscore.Internal.Correction.Weighted>
   9.000000E+99

> <Gold.Protein.RotatedTorsions>
[ 6907 6896 6895 6894 ] final  -42.08 input  -60.11 | X-H torsion
[ 7974 7965 7964 7962 ] final  145.38 input  175.53 | X-H torsion
[ 8008 7997 7996 7995 ] final  -44.69 input   59.86 | X-H torsion
[ 10167 10162 10161 10158 ] final  -28.52 input  -65.29 | X-H torsion
[ 10718 10713 10712 10709 ] final -154.49 input   66.30 | X-H torsion
[ 10763 10752 10751 10750 ] final  -51.13 input  -60.55 | X-H torsion
[ 11005 11000 10999 10996 ] final -159.03 input  -57.11 | X-H torsion

> <Gold.Protein.ActiveResidues>
 VAL166  LYS551  ARG553  GLY616  TRP617  ASP618  TYR619  PRO620  LYS621  CYS622 
 ASP623  PHE694  ASN695  SER759  ASP760  ASP761  ALA762  ILE779  LEU786  VAL792 
 PHE793  MET794  SER795  GLU796  ALA797  LYS798  CYS799  TRP800  GLU811  SER814 

> <Gold.Protein.RotatedAtoms>
  150.9593  134.8983  159.7720 H   0  0  0  0  0  0  0  0  0  0  0  0  # atno 6907 bound_to 6896
  152.5150  134.3696  159.9323 H   0  0  0  0  0  0  0  0  0  0  0  0  # atno 6908 bound_to 6896
  151.3708  133.3815  159.2734 H   0  0  0  0  0  0  0  0  0  0  0  0  # atno 6909 bound_to 6896
  144.8757  139.5777  143.5866 H   0  0  0  0  0  0  0  0  0  0  0  0  # atno 7974 bound_to 7965
  154.3998  140.1416  156.3725 H   0  0  0  0  0  0  0  0  0  0  0  0  # atno 8008 bound_to 7997
  155.8079  140.3474  155.5420 H   0  0  0  0  0  0  0  0  0  0  0  0  # atno 8009 bound_to 7997
  155.8416  140.0927  157.1721 H   0  0  0  0  0  0  0  0  0  0  0  0  # atno 8010 bound_to 7997
  140.7269  143.4003  151.1276 H   0  0  0  0  0  0  0  0  0  0  0  0  # atno 10167 bound_to 10162
  156.4999  130.8387  151.2605 H   0  0  0  0  0  0  0  0  0  0  0  0  # atno 10718 bound_to 10713
  154.1216  135.6534  153.4904 H   0  0  0  0  0  0  0  0  0  0  0  0  # atno 10763 bound_to 10752
  153.0223  135.5271  154.7091 H   0  0  0  0  0  0  0  0  0  0  0  0  # atno 10764 bound_to 10752
  154.6300  135.2975  155.0197 H   0  0  0  0  0  0  0  0  0  0  0  0  # atno 10765 bound_to 10752
  140.6471  134.4490  157.5234 H   0  0  0  0  0  0  0  0  0  0  0  0  # atno 11005 bound_to 11000
  146.2961  139.7282  142.9126 LP  0  0  0  0  0  0  0  0  0  0  0  0  # atno 17320 bound_to 7965
  145.4047  141.0389  143.3050 LP  0  0  0  0  0  0  0  0  0  0  0  0  # atno 17321 bound_to 7965
  139.7622  143.8619  152.3102 LP  0  0  0  0  0  0  0  0  0  0  0  0  # atno 17342 bound_to 10162
  139.8508  144.7165  150.9216 LP  0  0  0  0  0  0  0  0  0  0  0  0  # atno 17343 bound_to 10162
  157.7464  130.9985  150.2855 LP  0  0  0  0  0  0  0  0  0  0  0  0  # atno 17370 bound_to 10713
  156.3342  130.3805  149.7464 LP  0  0  0  0  0  0  0  0  0  0  0  0  # atno 17371 bound_to 10713
  139.9059  134.8450  156.1709 LP  0  0  0  0  0  0  0  0  0  0  0  0  # atno 17394 bound_to 11000
  141.0564  133.6863  156.1869 LP  0  0  0  0  0  0  0  0  0  0  0  0  # atno 17395 bound_to 11000

$$$$
