AV-unprocessed.smi:2127|AV-procd|sdf|8679|dock1
  -GOLD-   2272011433D 1   1.00000     0.00000
 Structure written by MMmdl.
 34 35  0  0  0  0  0  0  0  0  1 V2000
  149.7974  140.5875  156.9147 O   0  0  0  0  0  0  0  0  0  0  0  0
  149.5292  141.6847  156.4253 C   0  0  0  0  0  0  0  0  0  0  0  0
  150.0424  142.8605  156.8257 N   0  0  0  0  0  0  0  0  0  0  0  0
  150.9801  143.1032  157.8650 C   0  0  0  0  0  0  0  0  0  0  0  0
  151.6205  144.3470  158.0826 C   0  0  0  0  0  0  0  0  0  0  0  0
  152.5446  144.4594  159.1393 C   0  0  0  0  0  0  0  0  0  0  0  0
  152.8004  143.3243  159.9331 C   0  0  0  0  0  0  0  0  0  0  0  0
  152.2087  142.1288  159.7272 N   0  0  0  0  0  0  0  0  0  0  0  0
  151.3245  142.0285  158.7118 C   0  0  0  0  0  0  0  0  0  0  0  0
  148.6916  141.8493  155.3915 N   0  0  0  0  0  0  0  0  0  0  0  0
  147.9710  140.7816  154.6982 C   0  0  2  0  0  0  0  0  0  0  0  0
  146.9300  140.1257  155.6419 C   0  0  0  0  0  0  0  0  0  0  0  0
  146.5294  138.6740  155.3071 C   0  0  0  0  0  0  0  0  0  0  0  0
  146.0386  138.4372  153.8646 C   0  0  0  0  0  0  0  0  0  0  0  0
  146.9890  138.8788  152.7258 C   0  0  0  0  0  0  0  0  0  0  0  0
  148.3999  138.9407  153.1061 N   0  0  0  0  0  0  0  0  0  0  0  0
  148.9291  139.8048  153.9897 C   0  0  0  0  0  0  0  0  0  0  0  0
  150.1328  139.8066  154.2443 O   0  0  0  0  0  0  0  0  0  0  0  0
  149.7898  143.6668  156.2730 H   0  0  0  0  0  0  0  0  0  0  0  0
  151.4337  145.2059  157.4572 H   0  0  0  0  0  0  0  0  0  0  0  0
  153.0492  145.3940  159.3341 H   0  0  0  0  0  0  0  0  0  0  0  0
  153.5036  143.3765  160.7510 H   0  0  0  0  0  0  0  0  0  0  0  0
  150.8715  141.0571  158.5761 H   0  0  0  0  0  0  0  0  0  0  0  0
  148.5296  142.7879  155.0561 H   0  0  0  0  0  0  0  0  0  0  0  0
  147.4188  141.2674  153.8925 H   0  0  0  0  0  0  0  0  0  0  0  0
  147.3152  140.1299  156.6627 H   0  0  0  0  0  0  0  0  0  0  0  0
  146.0347  140.7482  155.6649 H   0  0  0  0  0  0  0  0  0  0  0  0
  147.3689  138.0091  155.5151 H   0  0  0  0  0  0  0  0  0  0  0  0
  145.7461  138.3612  155.9979 H   0  0  0  0  0  0  0  0  0  0  0  0
  145.8456  137.3695  153.7559 H   0  0  0  0  0  0  0  0  0  0  0  0
  145.0720  138.9223  153.7245 H   0  0  0  0  0  0  0  0  0  0  0  0
  146.8898  138.1930  151.8844 H   0  0  0  0  0  0  0  0  0  0  0  0
  146.6819  139.8511  152.3391 H   0  0  0  0  0  0  0  0  0  0  0  0
  149.0241  138.2905  152.6509 H   0  0  0  0  0  0  0  0  0  0  0  0
  1  2  2  0  0  0  0
  2  3  1  0  0  0  0
  2 10  1  0  0  0  0
  3  4  1  0  0  0  0
  3 19  1  0  0  0  0
  4  9  1  0  0  0  0
  4  5  2  0  0  0  0
  5  6  1  0  0  0  0
  5 20  1  0  0  0  0
  6  7  2  0  0  0  0
  6 21  1  0  0  0  0
  7  8  1  0  0  0  0
  7 22  1  0  0  0  0
  8  9  2  0  0  0  0
  9 23  1  0  0  0  0
 10 11  1  0  0  0  0
 10 24  1  0  0  0  0
 11 17  1  0  0  0  0
 11 12  1  0  0  0  0
 11 25  1  0  0  0  0
 12 13  1  0  0  0  0
 12 26  1  0  0  0  0
 12 27  1  0  0  0  0
 13 14  1  0  0  0  0
 13 28  1  0  0  0  0
 13 29  1  0  0  0  0
 14 15  1  0  0  0  0
 14 30  1  0  0  0  0
 14 31  1  0  0  0  0
 15 16  1  0  0  0  0
 15 32  1  0  0  0  0
 15 33  1  0  0  0  0
 16 17  1  0  0  0  0
 16 34  1  0  0  0  0
 17 18  2  0  0  0  0
M  END
> <s_m_source_file>
AV-unprocessed.smi

> <i_m_source_file_index>
2127

> <i_lp_mmshare_version>
43012

> <i_f3d_flags>
0

> <s_epik_input>
W2NIXTFuW2NIXVtjSF1bY0hdYzFbTkhdQyg9TylbTkhdW0NAQEhdMltDSDJdW0NIMl1bQ0gyXVtDSDJdW05IXUMyPU8=

> <s_epik_cmdline>
J2VwaWtfcHl0aG9uJywgJy1waCcsICc3LjAnLCAnLXRuJywgJzgnLCAnLW1hJywgJzIwMCcsICctbWV0YWxfYmluZGluZycsICctaW1hZScsICc8aW5maWxlLm1hZT4nLCAnLW9tYWUnLCAnPG91dGZpbGUubWFlPic=

> <r_epik_Ionization_Penalty>
0.00420494

> <r_epik_Ionization_Penalty_Charging>
0

> <r_epik_Ionization_Penalty_Neutral>
0.00420494

> <r_epik_State_Penalty>
0.0029968

> <r_epik_Charging_Adjusted_Penalty>
0.0029968

> <i_epik_Tot_Q>
0

> <i_epik_Tot_abs_Q>
0

> <r_epik_Metal_State_Penalty>
-0

> <b_epik_Metal_Only>
0

> <s_lp_Force_Field>
OPLS_2005

> <r_lp_Energy>
16.7417

> <b_lp_Chiralities_Consistent>
1

> <s_lp_Variant>
AV-unprocessed.smi:2127-1

> <Gold.Version>
5.8.1

> <Gold.Id.Protein>
6NUR|6NUR_protein|mol2

> <Gold.PLP.Fitness>
42.2725

> <Gold.PLP.PLP>
-32.0409

> <Gold.PLP.part.hbond>
-4.9750

> <Gold.PLP.part.metal>
0.0000

> <Gold.PLP.part.buried>
-3.8553

> <Gold.PLP.part.nonpolar>
-24.7297

> <Gold.PLP.part.repulsive>
0.7911

> <Gold.PLP.ligand.clash>
0.0000

> <Gold.PLP.ligand.torsion>
0.0470

> <Gold.PLP.Chemscore.Hbond>
3.4243

> <Gold.PLP.Chemscore.CHOScore>
0.0000

> <Gold.PLP.Chemscore.Metal>
0.0000

> <Gold.Chemscore.Hbonds>
donor molecule, donor type, donor heavy atom, donor atom, acceptor molecule, acceptor atom, score
      L1  H     3    19       P1  8028  0.96
      L1  H    10    24       P1  8028  0.78
      L1  H    16    34       P1  7948  0.51
      P1  H  7989  7998       L1    18  1.00

> <Gold.PLP.Chemscore.Internal.Correction>
0.0528

> <Gold.Rescore>
     Score         DG    S(hbond)    S(metal)    S(lipo)     H(rot)  DE(clash)    DE(int)     intcor
     18.55     -22.70       3.29        0.00      75.21       1.00       0.13       4.01       ----

> <Gold.Chemscore.Fitness>
18.5540

> <Gold.Chemscore.DG>
-22.6969

> <Gold.Chemscore.ZeroCoef>
-5.4800

> <Gold.Chemscore.Hbond>
3.2867

> <Gold.Chemscore.Metal>
0.0000

> <Gold.Chemscore.Lipo>
75.2077

> <Gold.Chemscore.Internal_Hbond>
0.0000

> <Gold.Chemscore.DEClash>
0.1341

> <Gold.Chemscore.DEInternal>
4.0088

> <Gold.Chemscore.Rot>
1.0000

> <Gold.Chemscore.Internal.Correction>
   9.000000E+99

> <Gold.Chemscore.Hbonds>
donor molecule, donor type, donor heavy atom, donor atom, acceptor molecule, acceptor atom, score
      L1  H     3    19       P1  8028  0.90
      L1  H    10    24       P1  8028  0.73
      L1  H    16    34       P1  7948  0.50
      P1  H  7989  7998       L1    18  0.96

> <Gold.Chemscore.Hbond.Weighted>
-10.9776

> <Gold.Chemscore.Metal.Weighted>
-0.0000

> <Gold.Chemscore.Lipo.Weighted>
-8.7993

> <Gold.Chemscore.Internal_Hbond.Weighted>
0.0000

> <Gold.Chemscore.DEClash.Weighted>
0.1341

> <Gold.Chemscore.DEInternal.Weighted>
4.0088

> <Gold.Chemscore.Rot.Weighted>
2.5600

> <Gold.Chemscore.Internal.Correction.Weighted>
   9.000000E+99

> <Gold.Protein.RotatedTorsions>
[ 6907 6896 6895 6894 ] final -172.30 input  -60.11 | X-H torsion
[ 7974 7965 7964 7962 ] final  136.23 input  175.53 | X-H torsion
[ 8008 7997 7996 7995 ] final  -25.23 input   59.86 | X-H torsion
[ 10167 10162 10161 10158 ] final   20.53 input  -65.29 | X-H torsion
[ 10718 10713 10712 10709 ] final  149.89 input   66.30 | X-H torsion
[ 10763 10752 10751 10750 ] final  -62.80 input  -60.55 | X-H torsion
[ 11005 11000 10999 10996 ] final  -19.79 input  -57.11 | X-H torsion

> <Gold.Protein.ActiveResidues>
 VAL166  LYS551  ARG553  GLY616  TRP617  ASP618  TYR619  PRO620  LYS621  CYS622 
 ASP623  PHE694  ASN695  SER759  ASP760  ASP761  ALA762  ILE779  LEU786  VAL792 
 PHE793  MET794  SER795  GLU796  ALA797  LYS798  CYS799  TRP800  GLU811  SER814 

> <Gold.Protein.RotatedAtoms>
  151.5378  133.3438  159.2929 H   0  0  0  0  0  0  0  0  0  0  0  0  # atno 6907 bound_to 6896
  150.8554  134.7894  159.7053 H   0  0  0  0  0  0  0  0  0  0  0  0  # atno 6908 bound_to 6896
  152.4589  134.5237  159.9842 H   0  0  0  0  0  0  0  0  0  0  0  0  # atno 6909 bound_to 6896
  144.9585  139.4737  143.5491 H   0  0  0  0  0  0  0  0  0  0  0  0  # atno 7974 bound_to 7965
  154.4487  140.1932  156.0587 H   0  0  0  0  0  0  0  0  0  0  0  0  # atno 8008 bound_to 7997
  156.0599  140.3298  155.7422 H   0  0  0  0  0  0  0  0  0  0  0  0  # atno 8009 bound_to 7997
  155.5427  140.0588  157.2857 H   0  0  0  0  0  0  0  0  0  0  0  0  # atno 8010 bound_to 7997
  140.5497  143.9532  150.6570 H   0  0  0  0  0  0  0  0  0  0  0  0  # atno 10167 bound_to 10162
  157.2904  131.0852  151.1466 H   0  0  0  0  0  0  0  0  0  0  0  0  # atno 10718 bound_to 10713
  154.3054  135.6226  153.5442 H   0  0  0  0  0  0  0  0  0  0  0  0  # atno 10763 bound_to 10752
  152.9835  135.5688  154.5237 H   0  0  0  0  0  0  0  0  0  0  0  0  # atno 10764 bound_to 10752
  154.4876  135.2866  155.1498 H   0  0  0  0  0  0  0  0  0  0  0  0  # atno 10765 bound_to 10752
  140.8401  133.7933  155.9851 H   0  0  0  0  0  0  0  0  0  0  0  0  # atno 11005 bound_to 11000
  146.3345  139.8719  142.8838 LP  0  0  0  0  0  0  0  0  0  0  0  0  # atno 17320 bound_to 7965
  145.2735  141.0116  143.3758 LP  0  0  0  0  0  0  0  0  0  0  0  0  # atno 17321 bound_to 7965
  140.2954  143.3296  152.1022 LP  0  0  0  0  0  0  0  0  0  0  0  0  # atno 17342 bound_to 10162
  139.5022  144.6729  151.6198 LP  0  0  0  0  0  0  0  0  0  0  0  0  # atno 17343 bound_to 10162
  157.2865  130.6775  149.6092 LP  0  0  0  0  0  0  0  0  0  0  0  0  # atno 17370 bound_to 10713
  155.9667  130.4434  150.5418 LP  0  0  0  0  0  0  0  0  0  0  0  0  # atno 17371 bound_to 10713
  140.8905  134.2501  157.5097 LP  0  0  0  0  0  0  0  0  0  0  0  0  # atno 17394 bound_to 11000
  139.8703  134.9659  156.4544 LP  0  0  0  0  0  0  0  0  0  0  0  0  # atno 17395 bound_to 11000

$$$$
