AV-unprocessed.smi:54|AV-procd|sdf|531|dock1
  -GOLD-   2262016403D 1   1.00000     0.00000
 Structure written by MMmdl.
 44 46  0  0  0  0  0  0  0  0  1 V2000
  152.1828  142.7707  161.0834 C   0  0  0  0  0  0  0  0  0  0  0  0
  152.6015  143.0751  159.6359 C   0  0  0  0  0  0  0  0  0  0  0  0
  152.2878  144.5320  159.2591 C   0  0  0  0  0  0  0  0  0  0  0  0
  151.9195  142.1083  158.6616 C   0  0  0  0  0  0  0  0  0  0  0  0
  151.1908  142.5054  157.7514 O   0  0  0  0  0  0  0  0  0  0  0  0
  152.1849  140.6993  158.8934 N   0  0  0  0  0  0  0  0  0  0  0  0
  151.7313  139.6528  158.1655 C   0  0  0  0  0  0  0  0  0  0  0  0
  150.7304  139.7562  157.3045 N   0  0  0  0  0  0  0  0  0  0  0  0
  150.4161  138.6035  156.6416 C   0  0  0  0  0  0  0  0  0  0  0  0
  151.0421  137.3826  156.7923 C   0  0  0  0  0  0  0  0  0  0  0  0
  150.4596  136.4381  155.9563 N   0  0  0  0  0  0  0  0  0  0  0  0
  149.5245  137.1007  155.3360 C   0  0  0  0  0  0  0  0  0  0  0  0
  149.4200  138.4222  155.6993 N   0  0  0  0  0  0  0  0  0  0  0  0
  148.4612  139.4350  155.1486 C   0  0  2  0  0  0  0  0  0  0  0  0
  147.1611  138.9563  155.3344 O   0  0  0  0  0  0  0  0  0  0  0  0
  146.5278  138.7079  154.0803 C   0  0  1  0  0  0  0  0  0  0  0  0
  144.9995  138.8554  154.1874 C   0  0  0  0  0  0  0  0  0  0  0  0
  144.3996  138.6224  152.9306 O   0  0  0  0  0  0  0  0  0  0  0  0
  147.2267  139.6875  153.1287 C   0  0  1  0  0  0  0  0  0  0  0  0
  146.6302  140.9728  153.2146 O   0  0  0  0  0  0  0  0  0  0  0  0
  148.6644  139.6700  153.6430 C   0  0  1  0  0  0  0  0  0  0  0  0
  149.3465  140.8752  153.3517 O   0  0  0  0  0  0  0  0  0  0  0  0
  152.1317  137.2522  157.7170 C   0  0  0  0  0  0  0  0  0  0  0  0
  152.7958  136.2506  157.9747 O   0  0  0  0  0  0  0  0  0  0  0  0
  152.4184  138.4574  158.3707 N   0  0  0  0  0  0  0  0  0  0  0  0
  148.6092  140.3292  155.7557 H   0  0  0  0  0  0  0  0  0  0  0  0
  146.7651  137.6970  153.7532 H   0  0  0  0  0  0  0  0  0  0  0  0
  147.1662  139.3533  152.0924 H   0  0  0  0  0  0  0  0  0  0  0  0
  149.2017  138.8332  153.1973 H   0  0  0  0  0  0  0  0  0  0  0  0
  152.4025  141.7366  161.3507 H   0  0  0  0  0  0  0  0  0  0  0  0
  151.1154  142.9357  161.2359 H   0  0  0  0  0  0  0  0  0  0  0  0
  152.7186  143.4098  161.7860 H   0  0  0  0  0  0  0  0  0  0  0  0
  153.6804  142.9321  159.5588 H   0  0  0  0  0  0  0  0  0  0  0  0
  152.5798  144.7473  158.2303 H   0  0  0  0  0  0  0  0  0  0  0  0
  152.8282  145.2255  159.9036 H   0  0  0  0  0  0  0  0  0  0  0  0
  151.2238  144.7523  159.3566 H   0  0  0  0  0  0  0  0  0  0  0  0
  152.7505  140.4812  159.7003 H   0  0  0  0  0  0  0  0  0  0  0  0
  148.8848  136.6410  154.5966 H   0  0  0  0  0  0  0  0  0  0  0  0
  144.5837  138.1799  154.9356 H   0  0  0  0  0  0  0  0  0  0  0  0
  144.7414  139.8721  154.4856 H   0  0  0  0  0  0  0  0  0  0  0  0
  144.3667  139.4399  152.4576 H   0  0  0  0  0  0  0  0  0  0  0  0
  145.7297  140.9033  152.9365 H   0  0  0  0  0  0  0  0  0  0  0  0
  149.2124  141.4753  154.0694 H   0  0  0  0  0  0  0  0  0  0  0  0
  153.1775  138.4407  159.0357 H   0  0  0  0  0  0  0  0  0  0  0  0
  1  2  1  0  0  0  0
  1 30  1  0  0  0  0
  1 31  1  0  0  0  0
  1 32  1  0  0  0  0
  2  3  1  0  0  0  0
  2  4  1  0  0  0  0
  2 33  1  0  0  0  0
  3 34  1  0  0  0  0
  3 35  1  0  0  0  0
  3 36  1  0  0  0  0
  4  5  2  0  0  0  0
  4  6  1  0  0  0  0
  6 37  1  0  0  0  0
  6  7  1  0  0  0  0
  7 25  1  0  0  0  0
  7  8  2  0  0  0  0
  8  9  1  0  0  0  0
  9 13  1  0  0  0  0
  9 10  2  0  0  0  0
 10 11  1  0  0  0  0
 10 23  1  0  0  0  0
 11 12  2  0  0  0  0
 12 13  1  0  0  0  0
 12 38  1  0  0  0  0
 13 14  1  0  0  0  0
 14 26  1  0  0  0  0
 14 21  1  0  0  0  0
 14 15  1  0  0  0  0
 15 16  1  0  0  0  0
 16 27  1  0  0  0  0
 16 17  1  0  0  0  0
 16 19  1  0  0  0  0
 17 18  1  0  0  0  0
 17 39  1  0  0  0  0
 17 40  1  0  0  0  0
 18 41  1  0  0  0  0
 19 28  1  0  0  0  0
 19 20  1  0  0  0  0
 19 21  1  0  0  0  0
 20 42  1  0  0  0  0
 21 29  1  0  0  0  0
 21 22  1  0  0  0  0
 22 43  1  0  0  0  0
 23 24  2  0  0  0  0
 23 25  1  0  0  0  0
 25 44  1  0  0  0  0
M  END
> <s_m_source_file>
AV-unprocessed.smi

> <i_m_source_file_index>
54

> <i_lp_mmshare_version>
43012

> <i_f3d_flags>
0

> <s_epik_input>
W0NIM11bQ0hdKFtDSDNdKUMoPU8pW05IXWMobjEpW25IXWMoPU8pYyhjMTIpbltjSF1uMltDQEBIXTNPW0NASF0oW0NIMl1bT0hdKVtDQEBIXShbT0hdKVtDQEhdM1tPSF0=

> <s_epik_cmdline>
J2VwaWtfcHl0aG9uJywgJy1waCcsICc3LjAnLCAnLXRuJywgJzgnLCAnLW1hJywgJzIwMCcsICctbWV0YWxfYmluZGluZycsICctaW1hZScsICc8aW5maWxlLm1hZT4nLCAnLW9tYWUnLCAnPG91dGZpbGUubWFlPic=

> <r_lp_tautomer_probability>
0.85571

> <r_epik_Ionization_Penalty>
0.0316551

> <r_epik_Ionization_Penalty_Charging>
0.0316043

> <r_epik_Ionization_Penalty_Neutral>
5.07097e-05

> <r_epik_State_Penalty>
3.15494e-07

> <r_epik_Charging_Adjusted_Penalty>
0.0316047

> <i_epik_Tot_Q>
0

> <i_epik_Tot_abs_Q>
0

> <r_epik_Metal_State_Penalty>
0.421206

> <b_epik_Metal_Only>
0

> <s_epik_Chemistry_Notes>
This compound contains an acetal/aminal-like group ( X-CH(R)-Y where X, Y are N, S, or O) that may be acid/base labile, releasing an aldehyde.

> <s_lp_Force_Field>
OPLS_2005

> <r_lp_Energy>
45.4171

> <b_lp_Chiralities_Consistent>
1

> <s_lp_Variant>
AV-unprocessed.smi:54-3

> <Gold.Version>
5.8.1

> <Gold.Id.Protein>
6NUR|6NUR_protein|mol2

> <Gold.PLP.Fitness>
48.7519

> <Gold.PLP.PLP>
-32.0606

> <Gold.PLP.part.hbond>
-7.0344

> <Gold.PLP.part.metal>
0.0000

> <Gold.PLP.part.buried>
-0.1430

> <Gold.PLP.part.nonpolar>
-27.9158

> <Gold.PLP.part.repulsive>
2.4794

> <Gold.PLP.ligand.clash>
0.0000

> <Gold.PLP.ligand.torsion>
0.0963

> <Gold.PLP.Chemscore.Hbond>
4.6177

> <Gold.PLP.Chemscore.CHOScore>
1.0000

> <Gold.PLP.Chemscore.Metal>
0.0000

> <Gold.Chemscore.Hbonds>
donor molecule, donor type, donor heavy atom, donor atom, acceptor molecule, acceptor atom, score
      L1  H    18    41       P1 10175  0.18
      L1  H    20    42       P1 10175  0.75
      P1  H  7989  7998       L1    22  0.09
      P1  H  8011  8017       L1    22  0.30
      L1  C    12    38       P1  7948  0.44

> <Gold.PLP.Chemscore.Internal.Correction>
0.0309

> <Gold.Rescore>
     Score         DG    S(hbond)    S(metal)    S(lipo)     H(rot)  DE(clash)    DE(int)     intcor
     11.25     -15.91       3.96        0.00      64.64       4.05       2.75       1.91       ----

> <Gold.Chemscore.Fitness>
11.2534

> <Gold.Chemscore.DG>
-15.9149

> <Gold.Chemscore.ZeroCoef>
-5.4800

> <Gold.Chemscore.Hbond>
3.9636

> <Gold.Chemscore.Metal>
0.0000

> <Gold.Chemscore.Lipo>
64.6377

> <Gold.Chemscore.Internal_Hbond>
0.0000

> <Gold.Chemscore.DEClash>
2.7509

> <Gold.Chemscore.DEInternal>
1.9106

> <Gold.Chemscore.Rot>
4.0493

> <Gold.Chemscore.Internal.Correction>
   9.000000E+99

> <Gold.Chemscore.Hbonds>
donor molecule, donor type, donor heavy atom, donor atom, acceptor molecule, acceptor atom, score
      L1  H    18    41       P1 10175  0.18
      L1  H    20    42       P1 10175  0.30
      P1  H  6896  6908       L1    24  0.01
      P1  H  7989  7998       L1    22  0.01

> <Gold.Chemscore.Hbond.Weighted>
-13.2385

> <Gold.Chemscore.Metal.Weighted>
-0.0000

> <Gold.Chemscore.Lipo.Weighted>
-7.5626

> <Gold.Chemscore.Internal_Hbond.Weighted>
0.0000

> <Gold.Chemscore.DEClash.Weighted>
2.7509

> <Gold.Chemscore.DEInternal.Weighted>
1.9106

> <Gold.Chemscore.Rot.Weighted>
10.3662

> <Gold.Chemscore.Internal.Correction.Weighted>
   9.000000E+99

> <Gold.Protein.RotatedTorsions>
[ 6907 6896 6895 6894 ] final  -81.04 input  -60.11 | X-H torsion
[ 7974 7965 7964 7962 ] final -101.97 input  175.53 | X-H torsion
[ 8008 7997 7996 7995 ] final -103.42 input   59.86 | X-H torsion
[ 10167 10162 10161 10158 ] final -132.73 input  -65.29 | X-H torsion
[ 10718 10713 10712 10709 ] final -165.86 input   66.30 | X-H torsion
[ 10763 10752 10751 10750 ] final   38.23 input  -60.55 | X-H torsion
[ 11005 11000 10999 10996 ] final  117.50 input  -57.11 | X-H torsion

> <Gold.Protein.ActiveResidues>
 VAL166  LYS551  ARG553  GLY616  TRP617  ASP618  TYR619  PRO620  LYS621  CYS622 
 ASP623  PHE694  ASN695  SER759  ASP760  ASP761  ALA762  ILE779  LEU786  VAL792 
 PHE793  MET794  SER795  GLU796  ALA797  LYS798  CYS799  TRP800  GLU811  SER814 

> <Gold.Protein.RotatedAtoms>
  150.6918  134.3877  159.5062 H   0  0  0  0  0  0  0  0  0  0  0  0  # atno 6907 bound_to 6896
  152.1670  134.8862  160.0546 H   0  0  0  0  0  0  0  0  0  0  0  0  # atno 6908 bound_to 6896
  151.9903  133.3754  159.4178 H   0  0  0  0  0  0  0  0  0  0  0  0  # atno 6909 bound_to 6896
  145.2747  140.9309  143.2966 H   0  0  0  0  0  0  0  0  0  0  0  0  # atno 7974 bound_to 7965
  154.8707  140.0423  157.1722 H   0  0  0  0  0  0  0  0  0  0  0  0  # atno 8008 bound_to 7997
  154.8742  140.2963  155.5442 H   0  0  0  0  0  0  0  0  0  0  0  0  # atno 8009 bound_to 7997
  156.2999  140.2423  156.3735 H   0  0  0  0  0  0  0  0  0  0  0  0  # atno 8010 bound_to 7997
  139.9055  143.6556  152.2586 H   0  0  0  0  0  0  0  0  0  0  0  0  # atno 10167 bound_to 10162
  156.6595  130.9040  151.3027 H   0  0  0  0  0  0  0  0  0  0  0  0  # atno 10718 bound_to 10713
  153.0008  135.6255  154.2272 H   0  0  0  0  0  0  0  0  0  0  0  0  # atno 10763 bound_to 10752
  154.2014  135.2804  155.2991 H   0  0  0  0  0  0  0  0  0  0  0  0  # atno 10764 bound_to 10752
  154.5680  135.5685  153.7128 H   0  0  0  0  0  0  0  0  0  0  0  0  # atno 10765 bound_to 10752
  139.9076  134.9610  156.7359 H   0  0  0  0  0  0  0  0  0  0  0  0  # atno 11005 bound_to 11000
  144.9305  139.4304  143.6497 LP  0  0  0  0  0  0  0  0  0  0  0  0  # atno 17320 bound_to 7965
  146.3235  139.8213  142.8926 LP  0  0  0  0  0  0  0  0  0  0  0  0  # atno 17321 bound_to 7965
  139.6988  144.7638  151.1310 LP  0  0  0  0  0  0  0  0  0  0  0  0  # atno 17342 bound_to 10162
  140.7697  143.5487  150.9229 LP  0  0  0  0  0  0  0  0  0  0  0  0  # atno 17343 bound_to 10162
  157.7114  130.9445  150.1103 LP  0  0  0  0  0  0  0  0  0  0  0  0  # atno 17370 bound_to 10713
  156.2022  130.3661  149.8774 LP  0  0  0  0  0  0  0  0  0  0  0  0  # atno 17371 bound_to 10713
  140.6888  133.9409  155.7953 LP  0  0  0  0  0  0  0  0  0  0  0  0  # atno 17394 bound_to 11000
  141.0457  134.0557  157.3847 LP  0  0  0  0  0  0  0  0  0  0  0  0  # atno 17395 bound_to 11000

$$$$
