AV-unprocessed.smi:2505|AV-procd|sdf|9855|dock4
  -GOLD-   2272013483D 1   1.00000     0.00000
 Structure written by MMmdl.
 48 52  0  0  0  0  0  0  0  0  1 V2000
  145.8459  138.6319  153.4196 O   0  0  0  0  0  0  0  0  0  0  0  0
  146.7415  137.8774  153.0470 C   0  0  0  0  0  0  0  0  0  0  0  0
  148.0529  138.0591  153.2948 N   0  0  0  0  0  0  0  0  0  0  0  0
  148.6785  139.0914  154.0420 C   0  0  0  0  0  0  0  0  0  0  0  0
  148.0091  140.1905  154.6345 C   0  0  0  0  0  0  0  0  0  0  0  0
  148.6749  141.1261  155.3459 N   0  0  0  0  0  0  0  0  0  0  0  0
  149.9967  140.9727  155.4623 C   0  0  0  0  0  0  0  0  0  0  0  0
  150.7223  141.9941  156.2820 C   0  0  0  0  0  0  0  0  0  0  0  0
  151.5745  141.5784  157.4639 C   0  0  0  0  0  0  0  0  0  0  0  0
  150.2813  142.3085  157.6973 C   0  0  0  0  0  0  0  0  0  0  0  0
  150.7280  139.9687  154.9702 N   0  0  0  0  0  0  0  0  0  0  0  0
  150.0707  139.0281  154.2589 C   0  0  0  0  0  0  0  0  0  0  0  0
  146.4745  136.7981  152.2923 N   0  0  0  0  0  0  0  0  0  0  0  0
  145.1607  136.3195  151.8436 C   0  0  2  0  0  0  0  0  0  0  0  0
  144.1839  135.9966  153.0010 C   0  0  2  0  0  0  0  0  0  0  0  0
  144.4308  136.4059  154.4334 C   0  0  0  0  0  0  0  0  0  0  0  0
  145.0616  135.1512  155.0444 C   0  0  0  0  0  0  0  0  0  0  0  0
  145.5475  134.4049  153.9309 O   0  0  0  0  0  0  0  0  0  0  0  0
  144.6053  134.5416  152.8704 C   0  0  2  0  0  0  0  0  0  0  0  0
  145.1859  134.8187  151.4690 C   0  0  0  0  0  0  0  0  0  0  0  0
  146.5011  134.1335  151.0961 C   0  0  0  0  0  0  0  0  0  0  0  0
  146.1352  132.7894  150.4642 C   0  0  0  0  0  0  0  0  0  0  0  0
  144.7240  132.9741  149.8988 C   0  0  0  0  0  0  0  0  0  0  0  0
  144.2944  134.3878  150.3047 C   0  0  0  0  0  0  0  0  0  0  0  0
  148.6793  137.4017  152.8536 H   0  0  0  0  0  0  0  0  0  0  0  0
  146.9413  140.3287  154.5707 H   0  0  0  0  0  0  0  0  0  0  0  0
  151.0777  142.8167  155.6644 H   0  0  0  0  0  0  0  0  0  0  0  0
  151.6062  140.5214  157.7214 H   0  0  0  0  0  0  0  0  0  0  0  0
  152.4990  142.1267  157.6322 H   0  0  0  0  0  0  0  0  0  0  0  0
  150.3402  143.3452  158.0219 H   0  0  0  0  0  0  0  0  0  0  0  0
  149.4526  141.7371  158.1111 H   0  0  0  0  0  0  0  0  0  0  0  0
  150.6637  138.2185  153.8586 H   0  0  0  0  0  0  0  0  0  0  0  0
  147.2699  136.2802  151.9468 H   0  0  0  0  0  0  0  0  0  0  0  0
  144.7089  136.9296  151.0596 H   0  0  0  0  0  0  0  0  0  0  0  0
  143.1501  136.1329  152.6798 H   0  0  0  0  0  0  0  0  0  0  0  0
  145.0988  137.2624  154.5114 H   0  0  0  0  0  0  0  0  0  0  0  0
  143.5078  136.6695  154.9503 H   0  0  0  0  0  0  0  0  0  0  0  0
  145.8605  135.3832  155.7487 H   0  0  0  0  0  0  0  0  0  0  0  0
  144.3078  134.5587  155.5650 H   0  0  0  0  0  0  0  0  0  0  0  0
  143.7806  133.8295  152.9222 H   0  0  0  0  0  0  0  0  0  0  0  0
  147.0404  134.7389  150.3659 H   0  0  0  0  0  0  0  0  0  0  0  0
  147.1683  134.0016  151.9484 H   0  0  0  0  0  0  0  0  0  0  0  0
  146.8529  132.4928  149.6989 H   0  0  0  0  0  0  0  0  0  0  0  0
  146.1264  132.0101  151.2273 H   0  0  0  0  0  0  0  0  0  0  0  0
  144.7006  132.8509  148.8155 H   0  0  0  0  0  0  0  0  0  0  0  0
  144.0508  132.2316  150.3287 H   0  0  0  0  0  0  0  0  0  0  0  0
  143.2333  134.4235  150.5542 H   0  0  0  0  0  0  0  0  0  0  0  0
  144.4381  135.0620  149.4592 H   0  0  0  0  0  0  0  0  0  0  0  0
  1  2  2  0  0  0  0
  2  3  1  0  0  0  0
  2 13  1  0  0  0  0
  3  4  1  0  0  0  0
  3 25  1  0  0  0  0
  4 12  1  0  0  0  0
  4  5  2  0  0  0  0
  5  6  1  0  0  0  0
  5 26  1  0  0  0  0
  6  7  2  0  0  0  0
  7  8  1  0  0  0  0
  7 11  1  0  0  0  0
  8 10  1  0  0  0  0
  8  9  1  0  0  0  0
  8 27  1  0  0  0  0
  9 10  1  0  0  0  0
  9 28  1  0  0  0  0
  9 29  1  0  0  0  0
 10 30  1  0  0  0  0
 10 31  1  0  0  0  0
 11 12  2  0  0  0  0
 12 32  1  0  0  0  0
 13 14  1  0  0  0  0
 13 33  1  0  0  0  0
 14 20  1  0  0  0  0
 14 15  1  0  0  0  0
 14 34  1  0  0  0  0
 15 19  1  0  0  0  0
 15 16  1  0  0  0  0
 15 35  1  0  0  0  0
 16 17  1  0  0  0  0
 16 36  1  0  0  0  0
 16 37  1  0  0  0  0
 17 18  1  0  0  0  0
 17 38  1  0  0  0  0
 17 39  1  0  0  0  0
 18 19  1  0  0  0  0
 19 20  1  0  0  0  0
 19 40  1  0  0  0  0
 20 24  1  0  0  0  0
 20 21  1  0  0  0  0
 21 22  1  0  0  0  0
 21 41  1  0  0  0  0
 21 42  1  0  0  0  0
 22 23  1  0  0  0  0
 22 43  1  0  0  0  0
 22 44  1  0  0  0  0
 23 24  1  0  0  0  0
 23 45  1  0  0  0  0
 23 46  1  0  0  0  0
 24 47  1  0  0  0  0
 24 48  1  0  0  0  0
M  END
> <s_m_source_file>
AV-unprocessed.smi

> <i_m_source_file_index>
2505

> <i_lp_mmshare_version>
43012

> <i_f3d_flags>
0

> <s_epik_input>
W0NIMl0xW0NIMl1bQ0hdMWMobltjSF0yKW5bY0hdYzJbTkhdQyg9TylbTkhdW0NAQEhdM1tDQEBIXShbQ0gyXVtDSDJdTzQpW0NASF00QzM1W0NIMl1bQ0gyXVtDSDJdW0NIMl01

> <s_epik_cmdline>
J2VwaWtfcHl0aG9uJywgJy1waCcsICc3LjAnLCAnLXRuJywgJzgnLCAnLW1hJywgJzIwMCcsICctbWV0YWxfYmluZGluZycsICctaW1hZScsICc8aW5maWxlLm1hZT4nLCAnLW9tYWUnLCAnPG91dGZpbGUubWFlPic=

> <r_lp_tautomer_probability>
1

> <r_epik_Ionization_Penalty>
2.6075e-05

> <r_epik_Ionization_Penalty_Charging>
0

> <r_epik_Ionization_Penalty_Neutral>
2.6075e-05

> <r_epik_State_Penalty>
-0

> <r_epik_Charging_Adjusted_Penalty>
0

> <i_epik_Tot_Q>
0

> <i_epik_Tot_abs_Q>
0

> <r_epik_Metal_State_Penalty>
-0

> <b_epik_Metal_Only>
0

> <s_lp_Force_Field>
OPLS_2005

> <r_lp_Energy>
63.7277

> <b_lp_Chiralities_Consistent>
1

> <s_lp_Variant>
AV-unprocessed.smi:2505-3

> <Gold.Version>
5.8.1

> <Gold.Id.Protein>
6NUR|6NUR_protein|mol2

> <Gold.PLP.Fitness>
42.9810

> <Gold.PLP.PLP>
-34.4654

> <Gold.PLP.part.hbond>
-2.9952

> <Gold.PLP.part.metal>
0.0000

> <Gold.PLP.part.buried>
-4.3781

> <Gold.PLP.part.nonpolar>
-27.7997

> <Gold.PLP.part.repulsive>
1.4100

> <Gold.PLP.ligand.clash>
0.0000

> <Gold.PLP.ligand.torsion>
0.2166

> <Gold.PLP.Chemscore.Hbond>
2.8780

> <Gold.PLP.Chemscore.CHOScore>
0.0000

> <Gold.PLP.Chemscore.Metal>
0.0000

> <Gold.Chemscore.Hbonds>
donor molecule, donor type, donor heavy atom, donor atom, acceptor molecule, acceptor atom, score
      L1  H     3    25       P1  7948  1.00
      L1  H    13    33       P1  7948  0.93
      P1  H  7989  7998       L1    11  0.95

> <Gold.PLP.Chemscore.Internal.Correction>
0.3148

> <Gold.Rescore>
     Score         DG    S(hbond)    S(metal)    S(lipo)     H(rot)  DE(clash)    DE(int)     intcor
     15.76     -19.67       2.09        0.00      87.34       1.17       0.54       3.37       ----

> <Gold.Chemscore.Fitness>
15.7569

> <Gold.Chemscore.DG>
-19.6665

> <Gold.Chemscore.ZeroCoef>
-5.4800

> <Gold.Chemscore.Hbond>
2.0881

> <Gold.Chemscore.Metal>
0.0000

> <Gold.Chemscore.Lipo>
87.3380

> <Gold.Chemscore.Internal_Hbond>
0.0000

> <Gold.Chemscore.DEClash>
0.5403

> <Gold.Chemscore.DEInternal>
3.3692

> <Gold.Chemscore.Rot>
1.1744

> <Gold.Chemscore.Internal.Correction>
   9.000000E+99

> <Gold.Chemscore.Hbonds>
donor molecule, donor type, donor heavy atom, donor atom, acceptor molecule, acceptor atom, score
      L1  H     3    25       P1  7948  0.91
      L1  H    13    33       P1  7948  0.89
      P1  H  7989  7998       L1    11  0.06

> <Gold.Chemscore.Hbond.Weighted>
-6.9744

> <Gold.Chemscore.Metal.Weighted>
-0.0000

> <Gold.Chemscore.Lipo.Weighted>
-10.2185

> <Gold.Chemscore.Internal_Hbond.Weighted>
0.0000

> <Gold.Chemscore.DEClash.Weighted>
0.5403

> <Gold.Chemscore.DEInternal.Weighted>
3.3692

> <Gold.Chemscore.Rot.Weighted>
3.0064

> <Gold.Chemscore.Internal.Correction.Weighted>
   9.000000E+99

> <Gold.Protein.RotatedTorsions>
[ 6907 6896 6895 6894 ] final -132.35 input  -60.11 | X-H torsion
[ 7974 7965 7964 7962 ] final -140.36 input  175.53 | X-H torsion
[ 8008 7997 7996 7995 ] final   60.55 input   59.86 | X-H torsion
[ 10167 10162 10161 10158 ] final    2.50 input  -65.29 | X-H torsion
[ 10718 10713 10712 10709 ] final   91.56 input   66.30 | X-H torsion
[ 10763 10752 10751 10750 ] final  -32.77 input  -60.55 | X-H torsion
[ 11005 11000 10999 10996 ] final  173.92 input  -57.11 | X-H torsion

> <Gold.Protein.ActiveResidues>
 VAL166  LYS551  ARG553  GLY616  TRP617  ASP618  TYR619  PRO620  LYS621  CYS622 
 ASP623  PHE694  ASN695  SER759  ASP760  ASP761  ALA762  ILE779  LEU786  VAL792 
 PHE793  MET794  SER795  GLU796  ALA797  LYS798  CYS799  TRP800  GLU811  SER814 

> <Gold.Protein.RotatedAtoms>
  150.9614  133.6441  159.2753 H   0  0  0  0  0  0  0  0  0  0  0  0  # atno 6907 bound_to 6896
  151.3762  135.0930  159.9491 H   0  0  0  0  0  0  0  0  0  0  0  0  # atno 6908 bound_to 6896
  152.5149  133.9158  159.7565 H   0  0  0  0  0  0  0  0  0  0  0  0  # atno 6909 bound_to 6896
  144.8604  140.6209  143.5332 H   0  0  0  0  0  0  0  0  0  0  0  0  # atno 7974 bound_to 7965
  155.5841  140.3492  155.4548 H   0  0  0  0  0  0  0  0  0  0  0  0  # atno 8008 bound_to 7997
  156.0351  140.1283  157.0242 H   0  0  0  0  0  0  0  0  0  0  0  0  # atno 8009 bound_to 7997
  154.4368  140.1035  156.6141 H   0  0  0  0  0  0  0  0  0  0  0  0  # atno 8010 bound_to 7997
  140.6632  143.7249  150.7777 H   0  0  0  0  0  0  0  0  0  0  0  0  # atno 10167 bound_to 10162
  157.6960  131.0411  150.3747 H   0  0  0  0  0  0  0  0  0  0  0  0  # atno 10718 bound_to 10713
  153.8192  135.6876  153.4829 H   0  0  0  0  0  0  0  0  0  0  0  0  # atno 10763 bound_to 10752
  153.1580  135.4591  154.9730 H   0  0  0  0  0  0  0  0  0  0  0  0  # atno 10764 bound_to 10752
  154.7935  135.3310  154.7665 H   0  0  0  0  0  0  0  0  0  0  0  0  # atno 10765 bound_to 10752
  140.3457  134.7238  157.4233 H   0  0  0  0  0  0  0  0  0  0  0  0  # atno 11005 bound_to 11000
  145.4324  139.1547  143.4015 LP  0  0  0  0  0  0  0  0  0  0  0  0  # atno 17320 bound_to 7965
  146.2856  140.4441  142.8759 LP  0  0  0  0  0  0  0  0  0  0  0  0  # atno 17321 bound_to 7965
  140.0922  143.4867  152.2472 LP  0  0  0  0  0  0  0  0  0  0  0  0  # atno 17342 bound_to 10162
  139.5872  144.7536  151.3491 LP  0  0  0  0  0  0  0  0  0  0  0  0  # atno 17343 bound_to 10162
  156.4168  130.3945  149.6853 LP  0  0  0  0  0  0  0  0  0  0  0  0  # atno 17370 bound_to 10713
  156.4117  130.7725  151.2739 LP  0  0  0  0  0  0  0  0  0  0  0  0  # atno 17371 bound_to 10713
  140.0744  134.5818  155.8607 LP  0  0  0  0  0  0  0  0  0  0  0  0  # atno 17394 bound_to 11000
  141.2026  133.6626  156.6016 LP  0  0  0  0  0  0  0  0  0  0  0  0  # atno 17395 bound_to 11000

$$$$
