#       Name:                AV-unprocessed.smi:1503
#       Creating user name   scv26
#       Creation time:       Fri Mar 27 06:19:00 2020


#       File generated by GOLD software.
#

@<TRIPOS>MOLECULE
AV-unprocessed.smi:1503
    51    52     1
SMALL
NO_CHARGES


@<TRIPOS>ATOM
      1 ****        -4.4358   4.7234  -0.6519 C.2            1 S1                 0.0000
      2 ****        -3.9916   5.6492   0.2150 C.2            1 S1                 0.0000
      3 ****        -2.8697   5.4850   1.2309 C.3            1 S1                 0.0000
      4 ****        -2.2158   4.1788   1.2013 N.am           1 S1                 0.0000
      5 ****        -1.1892   3.8446   0.4037 C.2            1 S1                 0.0000
      6 ****        -0.6944   4.6183  -0.4169 O.2            1 S1                 0.0000
      7 ****        -0.6464   2.4217   0.5693 C.3            1 S1                 0.0000
      8 ****         0.0598   1.8844  -0.6906 C.3            1 S1                 0.0000
      9 ****         0.5585   0.4529  -0.5027 C.2            1 S1                 0.0000
     10 ****        -0.1387  -0.6426  -0.9154 C.2            1 S1                 0.0000
     11 ****        -1.4974  -0.5556  -1.5875 C.3            1 S1                 0.0000
     12 ****         0.3729  -1.9362  -0.7321 N.2            1 S1                 0.0000
     13 ****         1.5289  -2.1090  -0.1646 C.2            1 S1                 0.0000
     14 ****         2.0764  -3.3817   0.0289 N.pl3          1 S1                 0.0000
     15 ****         2.7365  -3.7475   1.2853 C.3            1 S1                 0.0000
     16 ****         3.7342  -4.8992   1.0793 C.3            1 S1                 0.0000
     17 ****         3.0703  -6.0097   0.4912 O.3            1 S1                 0.0000
     18 ****         2.5426  -5.6776  -0.7856 C.3            1 S1                 0.0000
     19 ****         1.5065  -4.5502  -0.6434 C.3            1 S1                 0.0000
     20 ****         2.3036  -1.0475   0.2767 N.pl3          1 S1                -1.0000
     21 ****         1.8669   0.2362   0.1384 C.2            1 S1                 0.0000
     22 ****         2.5274   1.1959   0.5343 O.2            1 S1                 0.0000
     23 ****        -4.0090   3.7326  -0.7032 H              1 S1                 0.0000
     24 ****        -5.2445   4.9512  -1.3306 H              1 S1                 0.0000
     25 ****        -4.4668   6.6193   0.2115 H              1 S1                 0.0000
     26 ****        -2.1373   6.2797   1.0811 H              1 S1                 0.0000
     27 ****        -3.2861   5.6338   2.2271 H              1 S1                 0.0000
     28 ****        -2.5608   3.4810   1.8447 H              1 S1                 0.0000
     29 ****         0.0430   2.4172   1.4143 H              1 S1                 0.0000
     30 ****        -1.4695   1.7566   0.8349 H              1 S1                 0.0000
     31 ****        -0.6190   1.9335  -1.5422 H              1 S1                 0.0000
     32 ****         0.9005   2.5252  -0.9614 H              1 S1                 0.0000
     33 ****        -2.1774   0.0658  -1.0044 H              1 S1                 0.0000
     34 ****        -1.9518  -1.5417  -1.6889 H              1 S1                 0.0000
     35 ****        -1.4000  -0.1248  -2.5841 H              1 S1                 0.0000
     36 ****         3.2655  -2.9023   1.7258 H              1 S1                 0.0000
     37 ****         1.9724  -4.0440   2.0049 H              1 S1                 0.0000
     38 ****         4.5687  -4.5821   0.4515 H              1 S1                 0.0000
     39 ****         4.1550  -5.2053   2.0370 H              1 S1                 0.0000
     40 ****         3.3482  -5.3820  -1.4600 H              1 S1                 0.0000
     41 ****         2.0754  -6.5628  -1.2173 H              1 S1                 0.0000
     42 ****         0.6470  -4.9018  -0.0713 H              1 S1                 0.0000
     43 ****         1.1409  -4.2807  -1.6351 H              1 S1                 0.0000
     44 ****        -1.0574   5.5452  -0.5122 LP             1 S1                 0.0000
     45 ****         0.0703   4.3196  -0.9878 LP             1 S1                 0.0000
     46 ****        -0.1543  -2.7284  -1.0394 LP             1 S1                 0.0000
     47 ****         2.3214  -6.2957   1.0891 LP             1 S1                 0.0000
     48 ****         3.7212  -6.7620   0.3893 LP             1 S1                 0.0000
     49 ****         3.1916  -1.2254   0.7008 LP             1 S1                 0.0000
     50 ****         2.1762   2.1253   0.4212 LP             1 S1                 0.0000
     51 ****         3.4154   1.0464   0.9693 LP             1 S1                 0.0000
@<TRIPOS>BOND
    1    1    2 2     
    2    1   23 1     
    3    1   24 1     
    4    2    3 1     
    5    2   25 1     
    6    3    4 1     
    7    3   26 1     
    8    3   27 1     
    9    4    5 am    
   10    4   28 1     
   11    5    6 2     
   12    5    7 1     
   13    7    8 1     
   14    7   29 1     
   15    7   30 1     
   16    8    9 1     
   17    8   31 1     
   18    8   32 1     
   19    9   21 1     
   20    9   10 2     
   21   10   11 1     
   22   10   12 1     
   23   11   33 1     
   24   11   34 1     
   25   11   35 1     
   26   12   13 2     
   27   13   14 1     
   28   13   20 1     
   29   14   19 1     
   30   14   15 1     
   31   15   16 1     
   32   15   36 1     
   33   15   37 1     
   34   16   17 1     
   35   16   38 1     
   36   16   39 1     
   37   17   18 1     
   38   18   19 1     
   39   18   40 1     
   40   18   41 1     
   41   19   42 1     
   42   19   43 1     
   43   20   21 1     
   44   21   22 2     
   45    6   44 1     
   46    6   45 1     
   47   12   46 1     
   48   17   47 1     
   49   17   48 1     
   50   20   49 1     
   51   22   50 1     
   52   22   51 1     
@<TRIPOS>SUBSTRUCTURE
      1 S1             1
@<TRIPOS>SET
LONE_PAIRS      STATIC     ATOMS    <user>   **** ""
8 44 45 46 47 48 49 50 51
DONOR_HYDROGENS      STATIC     ATOMS    <user>   **** ""
1 28
ATOM$BLUE        STATIC     ATOMS    COLORGROUP SYSTEM
8 44 45 46 47 48 49 50 51
ATOM$RED        STATIC     ATOMS    COLORGROUP SYSTEM
1 28
