#       Name:                AV-unprocessed.smi:2408
#       Creating user name   scv26
#       Creation time:       Fri Mar 27 13:15:31 2020


#       File generated by GOLD software.
#

@<TRIPOS>MOLECULE
AV-unprocessed.smi:2408
    52    54     1
SMALL
NO_CHARGES


@<TRIPOS>ATOM
      1 ****        -4.0863  -0.7464  -0.1826 C.3            1 S1                 0.0000
      2 ****        -3.8775   0.6633  -0.7051 C.ar           1 S1                 0.0000
      3 ****        -4.9348   1.5060  -0.6670 N.pl3          1 S1                 1.0000
      4 ****        -4.8782   2.7829  -1.1017 C.ar           1 S1                 0.0000
      5 ****        -3.6757   3.2880  -1.6322 C.ar           1 S1                 0.0000
      6 ****        -2.5449   2.4484  -1.6918 C.ar           1 S1                 0.0000
      7 ****        -2.6341   1.1173  -1.2104 C.ar           1 S1                 0.0000
      8 ****        -1.5398   0.2099  -1.2547 N.am           1 S1                 0.0000
      9 ****        -0.2309   0.4955  -1.1529 C.2            1 S1                 0.0000
     10 ****         0.2351   1.6259  -1.0126 O.2            1 S1                 0.0000
     11 ****         0.5158  -0.6225  -1.1872 N.am           1 S1                 0.0000
     12 ****         1.9821  -0.7344  -1.0717 C.3            1 S1                 0.0000
     13 ****         2.5092  -0.3845   0.3500 C.2            1 S1                 0.0000
     14 ****         3.7149  -0.2120   0.5345 O.2            1 S1                 0.0000
     15 ****         1.6188  -0.2996   1.3522 N.am           1 S1                 0.0000
     16 ****         1.9440   0.0168   2.7340 C.3            1 S1                 0.0000
     17 ****         0.7301   0.2572   3.6063 C.3            1 S1                 0.0000
     18 ****         0.8408   0.1876   5.1111 C.3            1 S1                 0.0000
     19 ****         0.0754  -0.8761   4.3604 C.3            1 S1                 0.0000
     20 ****         2.3842  -2.1923  -1.4008 C.3            1 S1                 0.0000
     21 ****         3.7129  -2.1137  -2.1497 C.3            1 S1                 0.0000
     22 ****         3.5814  -0.8533  -2.9941 C.3            1 S1                 0.0000
     23 ****         2.6995   0.1013  -2.1783 C.3            1 S1                 0.0000
     24 ****        -3.3977  -0.9530   0.6374 H              1 S1                 0.0000
     25 ****        -3.9080  -1.4747  -0.9741 H              1 S1                 0.0000
     26 ****        -5.1030  -0.8888   0.1860 H              1 S1                 0.0000
     27 ****        -5.7911   3.3544  -1.0185 H              1 S1                 0.0000
     28 ****        -3.6206   4.3047  -1.9935 H              1 S1                 0.0000
     29 ****        -1.6315   2.8352  -2.1181 H              1 S1                 0.0000
     30 ****        -1.7833  -0.7698  -1.2665 H              1 S1                 0.0000
     31 ****         0.0243  -1.4969  -1.3004 H              1 S1                 0.0000
     32 ****         0.6457  -0.4583   1.1359 H              1 S1                 0.0000
     33 ****         2.5400  -0.7940   3.1556 H              1 S1                 0.0000
     34 ****         2.5638   0.9143   2.7618 H              1 S1                 0.0000
     35 ****         0.0622   1.0262   3.2219 H              1 S1                 0.0000
     36 ****         1.8018  -0.0937   5.5376 H              1 S1                 0.0000
     37 ****         0.2659   0.9070   5.6906 H              1 S1                 0.0000
     38 ****        -1.0098  -0.8654   4.4385 H              1 S1                 0.0000
     39 ****         0.5281  -1.8630   4.2864 H              1 S1                 0.0000
     40 ****         2.4582  -2.8320  -0.5194 H              1 S1                 0.0000
     41 ****         1.6431  -2.6534  -2.0561 H              1 S1                 0.0000
     42 ****         4.5345  -2.0021  -1.4412 H              1 S1                 0.0000
     43 ****         3.9105  -3.0021  -2.7501 H              1 S1                 0.0000
     44 ****         4.5497  -0.4174  -3.2422 H              1 S1                 0.0000
     45 ****         3.0808  -1.0972  -3.9321 H              1 S1                 0.0000
     46 ****         2.0005   0.5986  -2.8514 H              1 S1                 0.0000
     47 ****         3.3127   0.8978  -1.7544 H              1 S1                 0.0000
     48 ****        -5.8182   1.1603  -0.2917 H              1 S1                 0.0000
     49 ****        -0.3757   2.4163  -0.9666 LP             1 S1                 0.0000
     50 ****         1.2245   1.7539  -0.9445 LP             1 S1                 0.0000
     51 ****         4.3548  -0.2969  -0.2292 LP             1 S1                 0.0000
     52 ****         4.0538   0.0128   1.4481 LP             1 S1                 0.0000
@<TRIPOS>BOND
    1    1    2 1     
    2    1   24 1     
    3    1   25 1     
    4    1   26 1     
    5    2    7 ar    
    6    2    3 ar    
    7    3    4 ar    
    8    3   48 1     
    9    4    5 ar    
   10    4   27 1     
   11    5    6 ar    
   12    5   28 1     
   13    6    7 ar    
   14    6   29 1     
   15    7    8 1     
   16    8    9 am    
   17    8   30 1     
   18    9   10 2     
   19    9   11 am    
   20   11   12 1     
   21   11   31 1     
   22   12   23 1     
   23   12   13 1     
   24   12   20 1     
   25   13   14 2     
   26   13   15 am    
   27   15   16 1     
   28   15   32 1     
   29   16   17 1     
   30   16   33 1     
   31   16   34 1     
   32   17   19 1     
   33   17   18 1     
   34   17   35 1     
   35   18   19 1     
   36   18   36 1     
   37   18   37 1     
   38   19   38 1     
   39   19   39 1     
   40   20   21 1     
   41   20   40 1     
   42   20   41 1     
   43   21   22 1     
   44   21   42 1     
   45   21   43 1     
   46   22   23 1     
   47   22   44 1     
   48   22   45 1     
   49   23   46 1     
   50   23   47 1     
   51   10   49 1     
   52   10   50 1     
   53   14   51 1     
   54   14   52 1     
@<TRIPOS>SUBSTRUCTURE
      1 S1             1
@<TRIPOS>SET
LONE_PAIRS      STATIC     ATOMS    <user>   **** ""
4 49 50 51 52
DONOR_HYDROGENS      STATIC     ATOMS    <user>   **** ""
4 48 30 31 32
ATOM$BLUE        STATIC     ATOMS    COLORGROUP SYSTEM
4 49 50 51 52
ATOM$RED        STATIC     ATOMS    COLORGROUP SYSTEM
4 48 30 31 32
