AV-unprocessed.smi:3350|AV-procd|sdf|12940|dock7
  -GOLD-   2272019373D 1   1.00000     0.00000
 Structure written by MMmdl.
 41 42  0  0  0  0  0  0  0  0  1 V2000
  144.8663  135.8939  150.7320 C   0  0  0  0  0  0  0  0  0  0  0  0
  145.2926  135.6910  152.1945 C   0  0  1  0  0  0  0  0  0  0  0  0
  145.6113  134.2124  152.4896 C   0  0  0  0  0  0  0  0  0  0  0  0
  144.9545  133.3091  151.5608 N   0  0  0  0  0  0  0  0  0  0  0  0
  145.5291  132.3675  150.7332 C   0  0  0  0  0  0  0  0  0  0  0  0
  144.5188  131.7667  150.0383 C   0  0  0  0  0  0  0  0  0  0  0  0
  143.3467  132.4167  150.5160 C   0  0  0  0  0  0  0  0  0  0  0  0
  143.6102  133.3388  151.4279 N   0  0  0  0  0  0  0  0  0  0  0  0
  146.4544  136.5245  152.4959 N   0  0  0  0  0  0  0  0  0  0  0  0
  146.4429  137.6263  153.2579 C   0  0  0  0  0  0  0  0  0  0  0  0
  145.4304  138.1007  153.7730 O   0  0  0  0  0  0  0  0  0  0  0  0
  147.6710  138.1446  153.3926 N   0  0  0  0  0  0  0  0  0  0  0  0
  148.0094  139.3309  154.1746 C   0  0  2  0  0  0  0  0  0  0  0  0
  147.2823  140.5567  153.5992 C   0  0  0  0  0  0  0  0  0  0  0  0
  149.5376  139.5219  154.1873 C   0  0  2  0  0  0  0  0  0  0  0  0
  150.3428  138.2292  154.3382 C   0  0  0  0  0  0  0  0  0  0  0  0
  151.6522  138.6913  154.9590 C   0  0  0  0  0  0  0  0  0  0  0  0
  151.3577  140.1153  155.4383 C   0  0  0  0  0  0  0  0  0  0  0  0
  149.9490  140.2592  155.3276 O   0  0  0  0  0  0  0  0  0  0  0  0
  143.9887  135.2927  150.4930 H   0  0  0  0  0  0  0  0  0  0  0  0
  145.6627  135.6100  150.0432 H   0  0  0  0  0  0  0  0  0  0  0  0
  144.6115  136.9358  150.5347 H   0  0  0  0  0  0  0  0  0  0  0  0
  144.4604  135.9899  152.8349 H   0  0  0  0  0  0  0  0  0  0  0  0
  146.6859  134.0408  152.4160 H   0  0  0  0  0  0  0  0  0  0  0  0
  145.3248  133.9499  153.5094 H   0  0  0  0  0  0  0  0  0  0  0  0
  146.5970  132.2073  150.7070 H   0  0  0  0  0  0  0  0  0  0  0  0
  144.6043  130.9829  149.3006 H   0  0  0  0  0  0  0  0  0  0  0  0
  142.3196  132.2464  150.2290 H   0  0  0  0  0  0  0  0  0  0  0  0
  147.3403  136.2167  152.1221 H   0  0  0  0  0  0  0  0  0  0  0  0
  148.4359  137.6756  152.9301 H   0  0  0  0  0  0  0  0  0  0  0  0
  147.6805  139.1869  155.2056 H   0  0  0  0  0  0  0  0  0  0  0  0
  147.5033  141.4530  154.1793 H   0  0  0  0  0  0  0  0  0  0  0  0
  146.2008  140.4171  153.6142 H   0  0  0  0  0  0  0  0  0  0  0  0
  147.5798  140.7467  152.5674 H   0  0  0  0  0  0  0  0  0  0  0  0
  149.8611  140.0530  153.2896 H   0  0  0  0  0  0  0  0  0  0  0  0
  149.8362  137.5474  155.0231 H   0  0  0  0  0  0  0  0  0  0  0  0
  150.4835  137.7085  153.3907 H   0  0  0  0  0  0  0  0  0  0  0  0
  151.9396  138.0405  155.7855 H   0  0  0  0  0  0  0  0  0  0  0  0
  152.4648  138.6897  154.2315 H   0  0  0  0  0  0  0  0  0  0  0  0
  151.6926  140.2920  156.4606 H   0  0  0  0  0  0  0  0  0  0  0  0
  151.8437  140.8460  154.7901 H   0  0  0  0  0  0  0  0  0  0  0  0
  1  2  1  0  0  0  0
  1 20  1  0  0  0  0
  1 21  1  0  0  0  0
  1 22  1  0  0  0  0
  2  3  1  0  0  0  0
  2  9  1  0  0  0  0
  2 23  1  0  0  0  0
  3  4  1  0  0  0  0
  3 24  1  0  0  0  0
  3 25  1  0  0  0  0
  4  8  1  0  0  0  0
  4  5  1  0  0  0  0
  5  6  2  0  0  0  0
  5 26  1  0  0  0  0
  6  7  1  0  0  0  0
  6 27  1  0  0  0  0
  7  8  2  0  0  0  0
  7 28  1  0  0  0  0
  9 10  1  0  0  0  0
  9 29  1  0  0  0  0
 10 11  2  0  0  0  0
 10 12  1  0  0  0  0
 12 13  1  0  0  0  0
 12 30  1  0  0  0  0
 13 14  1  0  0  0  0
 13 15  1  0  0  0  0
 13 31  1  0  0  0  0
 14 32  1  0  0  0  0
 14 33  1  0  0  0  0
 14 34  1  0  0  0  0
 15 19  1  0  0  0  0
 15 16  1  0  0  0  0
 15 35  1  0  0  0  0
 16 17  1  0  0  0  0
 16 36  1  0  0  0  0
 16 37  1  0  0  0  0
 17 18  1  0  0  0  0
 17 38  1  0  0  0  0
 17 39  1  0  0  0  0
 18 19  1  0  0  0  0
 18 40  1  0  0  0  0
 18 41  1  0  0  0  0
M  END
> <s_m_source_file>
AV-unprocessed.smi

> <i_m_source_file_index>
3350

> <i_lp_mmshare_version>
43012

> <i_f3d_flags>
0

> <s_epik_input>
bjFbY0hdW2NIXVtjSF1uMVtDSDJdW0NAQEhdKFtDSDNdKVtOSF1DKD1PKVtOSF1bQ0BIXShbQ0gzXSlbQ0BASF0yW0NIMl1bQ0gyXVtDSDJdTzI=

> <s_epik_cmdline>
J2VwaWtfcHl0aG9uJywgJy1waCcsICc3LjAnLCAnLXRuJywgJzgnLCAnLW1hJywgJzIwMCcsICctbWV0YWxfYmluZGluZycsICctaW1hZScsICc8aW5maWxlLm1hZT4nLCAnLW9tYWUnLCAnPG91dGZpbGUubWFlPic=

> <r_lp_tautomer_probability>
1

> <r_epik_Ionization_Penalty>
6.42349e-05

> <r_epik_Ionization_Penalty_Charging>
0

> <r_epik_Ionization_Penalty_Neutral>
6.42349e-05

> <r_epik_State_Penalty>
-0

> <r_epik_Charging_Adjusted_Penalty>
0

> <i_epik_Tot_Q>
0

> <i_epik_Tot_abs_Q>
0

> <r_epik_Metal_State_Penalty>
-0

> <b_epik_Metal_Only>
0

> <s_lp_Force_Field>
OPLS_2005

> <r_lp_Energy>
16.0006

> <b_lp_Chiralities_Consistent>
1

> <s_lp_Variant>
AV-unprocessed.smi:3350-2

> <Gold.Version>
5.8.1

> <Gold.Id.Protein>
6NUR|6NUR_protein|mol2

> <Gold.PLP.Fitness>
42.6564

> <Gold.PLP.PLP>
-32.4925

> <Gold.PLP.part.hbond>
-1.9250

> <Gold.PLP.part.metal>
0.0000

> <Gold.PLP.part.buried>
-1.4490

> <Gold.PLP.part.nonpolar>
-30.6619

> <Gold.PLP.part.repulsive>
0.4839

> <Gold.PLP.ligand.clash>
0.0000

> <Gold.PLP.ligand.torsion>
1.0305

> <Gold.PLP.Chemscore.Hbond>
1.8960

> <Gold.PLP.Chemscore.CHOScore>
2.1633

> <Gold.PLP.Chemscore.Metal>
0.0000

> <Gold.Chemscore.Hbonds>
donor molecule, donor type, donor heavy atom, donor atom, acceptor molecule, acceptor atom, score
      L1  H     9    29       P1  7948  1.00
      L1  H    12    30       P1  7948  0.94
      L1  C     5    26       P1 10747  0.41
      L1  C     7    28       P1 10186  0.55
      L1  C     7    28       P1 10952  1.00

> <Gold.PLP.Chemscore.Internal.Correction>
0.0471

> <Gold.Rescore>
     Score         DG    S(hbond)    S(metal)    S(lipo)     H(rot)  DE(clash)    DE(int)     intcor
     15.45     -17.23       1.84        0.00      87.72       1.82       0.93       0.85       ----

> <Gold.Chemscore.Fitness>
15.4525

> <Gold.Chemscore.DG>
-17.2274

> <Gold.Chemscore.ZeroCoef>
-5.4800

> <Gold.Chemscore.Hbond>
1.8389

> <Gold.Chemscore.Metal>
0.0000

> <Gold.Chemscore.Lipo>
87.7241

> <Gold.Chemscore.Internal_Hbond>
0.0000

> <Gold.Chemscore.DEClash>
0.9288

> <Gold.Chemscore.DEInternal>
0.8461

> <Gold.Chemscore.Rot>
1.8197

> <Gold.Chemscore.Internal.Correction>
   9.000000E+99

> <Gold.Chemscore.Hbonds>
donor molecule, donor type, donor heavy atom, donor atom, acceptor molecule, acceptor atom, score
      L1  H     9    29       P1  7948  0.99
      L1  H    12    30       P1  7948  0.91

> <Gold.Chemscore.Hbond.Weighted>
-6.1420

> <Gold.Chemscore.Metal.Weighted>
-0.0000

> <Gold.Chemscore.Lipo.Weighted>
-10.2637

> <Gold.Chemscore.Internal_Hbond.Weighted>
0.0000

> <Gold.Chemscore.DEClash.Weighted>
0.9288

> <Gold.Chemscore.DEInternal.Weighted>
0.8461

> <Gold.Chemscore.Rot.Weighted>
4.6583

> <Gold.Chemscore.Internal.Correction.Weighted>
   9.000000E+99

> <Gold.Protein.RotatedTorsions>
[ 6907 6896 6895 6894 ] final -106.99 input  -60.11 | X-H torsion
[ 7974 7965 7964 7962 ] final  134.42 input  175.53 | X-H torsion
[ 8008 7997 7996 7995 ] final  180.00 input   59.86 | X-H torsion
[ 10167 10162 10161 10158 ] final  -90.57 input  -65.29 | X-H torsion
[ 10718 10713 10712 10709 ] final  -45.13 input   66.30 | X-H torsion
[ 10763 10752 10751 10750 ] final   63.22 input  -60.55 | X-H torsion
[ 11005 11000 10999 10996 ] final -142.91 input  -57.11 | X-H torsion

> <Gold.Protein.ActiveResidues>
 VAL166  LYS551  ARG553  GLY616  TRP617  ASP618  TYR619  PRO620  LYS621  CYS622 
 ASP623  PHE694  ASN695  SER759  ASP760  ASP761  ALA762  ILE779  LEU786  VAL792 
 PHE793  MET794  SER795  GLU796  ALA797  LYS798  CYS799  TRP800  GLU811  SER814 

> <Gold.Protein.RotatedAtoms>
  150.7419  133.9893  159.3601 H   0  0  0  0  0  0  0  0  0  0  0  0  # atno 6907 bound_to 6896
  151.7839  135.0752  160.0387 H   0  0  0  0  0  0  0  0  0  0  0  0  # atno 6908 bound_to 6896
  152.3254  133.5863  159.5809 H   0  0  0  0  0  0  0  0  0  0  0  0  # atno 6909 bound_to 6896
  144.9766  139.4549  143.5407 H   0  0  0  0  0  0  0  0  0  0  0  0  # atno 7974 bound_to 7965
  156.0370  140.1295  157.0197 H   0  0  0  0  0  0  0  0  0  0  0  0  # atno 8008 bound_to 7997
  154.4374  140.1038  156.6252 H   0  0  0  0  0  0  0  0  0  0  0  0  # atno 8009 bound_to 7997
  155.5723  140.3466  155.4520 H   0  0  0  0  0  0  0  0  0  0  0  0  # atno 8010 bound_to 7997
  140.3535  143.2878  151.9698 H   0  0  0  0  0  0  0  0  0  0  0  0  # atno 10167 bound_to 10162
  156.2315  130.4173  149.8869 H   0  0  0  0  0  0  0  0  0  0  0  0  # atno 10718 bound_to 10713
  153.0010  135.5437  154.6318 H   0  0  0  0  0  0  0  0  0  0  0  0  # atno 10763 bound_to 10752
  154.5594  135.2832  155.0936 H   0  0  0  0  0  0  0  0  0  0  0  0  # atno 10764 bound_to 10752
  154.2145  135.6461  153.5178 H   0  0  0  0  0  0  0  0  0  0  0  0  # atno 10765 bound_to 10752
  140.8178  134.2668  157.4913 H   0  0  0  0  0  0  0  0  0  0  0  0  # atno 11005 bound_to 11000
  146.3397  139.9012  142.8794 LP  0  0  0  0  0  0  0  0  0  0  0  0  # atno 17320 bound_to 7965
  145.2482  141.0034  143.3896 LP  0  0  0  0  0  0  0  0  0  0  0  0  # atno 17321 bound_to 7965
  139.4823  144.6055  151.7529 LP  0  0  0  0  0  0  0  0  0  0  0  0  # atno 17342 bound_to 10162
  140.5196  144.0900  150.6018 LP  0  0  0  0  0  0  0  0  0  0  0  0  # atno 17343 bound_to 10162
  156.6482  130.8732  151.3526 LP  0  0  0  0  0  0  0  0  0  0  0  0  # atno 17370 bound_to 10713
  157.7135  130.9469  150.1172 LP  0  0  0  0  0  0  0  0  0  0  0  0  # atno 17371 bound_to 10713
  139.8710  134.9518  156.4097 LP  0  0  0  0  0  0  0  0  0  0  0  0  # atno 17394 bound_to 11000
  140.9131  133.7698  155.9815 LP  0  0  0  0  0  0  0  0  0  0  0  0  # atno 17395 bound_to 11000

$$$$
