AV-unprocessed.smi:1260|AV-procd|sdf|5298|dock7
  -GOLD-   22720 4413D 1   1.00000     0.00000
 Structure written by MMmdl.
 37 39  0  0  0  0  0  0  0  0  2 V2000
  150.0616  139.9527  154.4272 O   0  0  0  0  0  0  0  0  0  0  0  0
  151.0572  139.9282  155.1499 C   0  0  0  0  0  0  0  0  0  0  0  0
  152.1398  138.8738  154.9230 C   0  0  0  0  0  0  0  0  0  0  0  0
  151.6263  137.5472  155.2077 N   0  0  0  0  0  0  0  0  0  0  0  0
  150.5912  136.8784  154.6952 C   0  0  0  0  0  0  0  0  0  0  0  0
  150.4557  135.6849  155.2521 N   0  0  0  0  0  0  0  0  0  0  0  0
  151.4962  135.6443  156.1655 N   0  0  0  0  0  0  0  0  0  0  0  0
  152.1932  136.7470  156.1445 N   0  0  0  0  0  0  0  0  0  0  0  0
  151.2729  140.8062  156.1419 N   0  0  0  0  0  0  0  0  0  0  0  0
  150.3945  141.9226  156.4781 C   0  0  1  0  0  0  0  0  0  0  0  0
  149.0135  141.4724  156.9858 C   0  0  0  0  0  0  0  0  0  0  0  0
  148.6340  142.4836  158.0865 C   0  0  0  0  0  0  0  0  0  0  0  0
  149.7331  143.4682  158.1108 N   0  3  1  0  0  0  0  0  0  0  0  0
  149.9537  144.2023  159.3757 C   0  0  0  0  0  0  0  0  0  0  0  0
  151.0798  145.2359  159.1733 C   0  0  0  0  0  0  0  0  0  0  0  0
  152.3587  144.5850  158.6081 C   0  0  0  0  0  0  0  0  0  0  0  0
  152.0512  143.7584  157.3445 C   0  0  0  0  0  0  0  0  0  0  0  0
  150.9306  142.7497  157.6491 C   0  0  2  0  0  0  0  0  0  0  0  0
  152.4949  138.9006  153.8918 H   0  0  0  0  0  0  0  0  0  0  0  0
  152.9976  139.0774  155.5658 H   0  0  0  0  0  0  0  0  0  0  0  0
  149.9388  137.2653  153.9263 H   0  0  0  0  0  0  0  0  0  0  0  0
  152.1161  140.7065  156.6887 H   0  0  0  0  0  0  0  0  0  0  0  0
  150.2461  142.5709  155.6117 H   0  0  0  0  0  0  0  0  0  0  0  0
  148.2820  141.4570  156.1771 H   0  0  0  0  0  0  0  0  0  0  0  0
  149.0544  140.4678  157.4096 H   0  0  0  0  0  0  0  0  0  0  0  0
  147.6817  142.9762  157.8883 H   0  0  0  0  0  0  0  0  0  0  0  0
  148.5589  141.9772  159.0500 H   0  0  0  0  0  0  0  0  0  0  0  0
  149.0320  144.7029  159.6745 H   0  0  0  0  0  0  0  0  0  0  0  0
  150.2149  143.5032  160.1714 H   0  0  0  0  0  0  0  0  0  0  0  0
  150.7380  146.0109  158.4857 H   0  0  0  0  0  0  0  0  0  0  0  0
  151.3007  145.7376  160.1158 H   0  0  0  0  0  0  0  0  0  0  0  0
  153.1028  145.3501  158.3846 H   0  0  0  0  0  0  0  0  0  0  0  0
  152.8005  143.9370  159.3662 H   0  0  0  0  0  0  0  0  0  0  0  0
  151.7523  144.4194  156.5299 H   0  0  0  0  0  0  0  0  0  0  0  0
  152.9514  143.2396  157.0143 H   0  0  0  0  0  0  0  0  0  0  0  0
  151.2582  142.0741  158.4430 H   0  0  0  0  0  0  0  0  0  0  0  0
  149.5208  144.1530  157.3991 H   0  0  0  0  0  0  0  0  0  0  0  0
  1  2  2  0  0  0  0
  2  3  1  0  0  0  0
  2  9  1  0  0  0  0
  3  4  1  0  0  0  0
  3 19  1  0  0  0  0
  3 20  1  0  0  0  0
  4  8  1  0  0  0  0
  4  5  1  0  0  0  0
  5  6  2  0  0  0  0
  5 21  1  0  0  0  0
  6  7  1  0  0  0  0
  7  8  2  0  0  0  0
  9 10  1  0  0  0  0
  9 22  1  0  0  0  0
 10 18  1  0  0  0  0
 10 11  1  0  0  0  0
 10 23  1  0  0  0  0
 11 12  1  0  0  0  0
 11 24  1  0  0  0  0
 11 25  1  0  0  0  0
 12 13  1  0  0  0  0
 12 26  1  0  0  0  0
 12 27  1  0  0  0  0
 13 18  1  0  0  0  0
 13 14  1  0  0  0  0
 13 37  1  0  0  0  0
 14 15  1  0  0  0  0
 14 28  1  0  0  0  0
 14 29  1  0  0  0  0
 15 16  1  0  0  0  0
 15 30  1  0  0  0  0
 15 31  1  0  0  0  0
 16 17  1  0  0  0  0
 16 32  1  0  0  0  0
 16 33  1  0  0  0  0
 17 18  1  0  0  0  0
 17 34  1  0  0  0  0
 17 35  1  0  0  0  0
 18 36  1  0  0  0  0
M  CHG  1  13   1
M  END
> <s_m_source_file>
AV-unprocessed.smi

> <i_m_source_file_index>
1260

> <i_lp_mmshare_version>
43012

> <i_f3d_flags>
0

> <s_epik_input>
bjFubltjSF1uMVtDSDJdQyg9TylbTkhdW0NASF0oW0NIMl1bQ0gyXTIpW0NAQEhdKE4yMylbQ0gyXVtDSDJdW0NIMl1bQ0gyXTM=

> <s_epik_cmdline>
J2VwaWtfcHl0aG9uJywgJy1waCcsICc3LjAnLCAnLXRuJywgJzgnLCAnLW1hJywgJzIwMCcsICctbWV0YWxfYmluZGluZycsICctaW1hZScsICc8aW5maWxlLm1hZT4nLCAnLW9tYWUnLCAnPG91dGZpbGUubWFlPic=

> <r_lp_tautomer_probability>
1

> <r_epik_Ionization_Penalty>
0.00234324

> <r_epik_Ionization_Penalty_Charging>
0.00233897

> <r_epik_Ionization_Penalty_Neutral>
4.26861e-06

> <r_epik_State_Penalty>
0.00161477

> <r_epik_Charging_Adjusted_Penalty>
0.00395374

> <i_epik_Tot_Q>
1

> <i_epik_Tot_abs_Q>
1

> <r_epik_Metal_State_Penalty>
-0

> <b_epik_Metal_Only>
0

> <s_lp_Force_Field>
OPLS_2005

> <r_lp_Energy>
36.6869

> <b_lp_Chiralities_Consistent>
1

> <s_lp_Variant>
AV-unprocessed.smi:1260-6

> <Gold.Version>
5.8.1

> <Gold.Id.Protein>
6NUR|6NUR_protein|mol2

> <Gold.PLP.Fitness>
44.0082

> <Gold.PLP.PLP>
-35.4464

> <Gold.PLP.part.hbond>
-4.5758

> <Gold.PLP.part.metal>
0.0000

> <Gold.PLP.part.buried>
-3.4342

> <Gold.PLP.part.nonpolar>
-29.0564

> <Gold.PLP.part.repulsive>
0.4307

> <Gold.PLP.ligand.clash>
0.0000

> <Gold.PLP.ligand.torsion>
0.0501

> <Gold.PLP.Chemscore.Hbond>
1.9000

> <Gold.PLP.Chemscore.CHOScore>
0.9832

> <Gold.PLP.Chemscore.Metal>
0.0000

> <Gold.Chemscore.Hbonds>
donor molecule, donor type, donor heavy atom, donor atom, acceptor molecule, acceptor atom, score
      L1  H    13    37       P1  8028  1.90
      L1  C     5    21       P1  7948  1.00

> <Gold.PLP.Chemscore.Internal.Correction>
0.0126

> <Gold.Rescore>
     Score         DG    S(hbond)    S(metal)    S(lipo)     H(rot)  DE(clash)    DE(int)     intcor
      7.88      -9.96       0.11        0.00      78.36       1.98       0.78       1.29       ----

> <Gold.Chemscore.Fitness>
7.8842

> <Gold.Chemscore.DG>
-9.9600

> <Gold.Chemscore.ZeroCoef>
-5.4800

> <Gold.Chemscore.Hbond>
0.1106

> <Gold.Chemscore.Metal>
0.0000

> <Gold.Chemscore.Lipo>
78.3607

> <Gold.Chemscore.Internal_Hbond>
0.0000

> <Gold.Chemscore.DEClash>
0.7842

> <Gold.Chemscore.DEInternal>
1.2915

> <Gold.Chemscore.Rot>
1.9757

> <Gold.Chemscore.Internal.Correction>
   9.000000E+99

> <Gold.Chemscore.Hbonds>
donor molecule, donor type, donor heavy atom, donor atom, acceptor molecule, acceptor atom, score
      L1  H    13    37       P1  8028  0.21

> <Gold.Chemscore.Hbond.Weighted>
-0.3695

> <Gold.Chemscore.Metal.Weighted>
-0.0000

> <Gold.Chemscore.Lipo.Weighted>
-9.1682

> <Gold.Chemscore.Internal_Hbond.Weighted>
0.0000

> <Gold.Chemscore.DEClash.Weighted>
0.7842

> <Gold.Chemscore.DEInternal.Weighted>
1.2915

> <Gold.Chemscore.Rot.Weighted>
5.0578

> <Gold.Chemscore.Internal.Correction.Weighted>
   9.000000E+99

> <Gold.Protein.RotatedTorsions>
[ 6907 6896 6895 6894 ] final -158.14 input  -60.11 | X-H torsion
[ 7974 7965 7964 7962 ] final -166.06 input  175.53 | X-H torsion
[ 8008 7997 7996 7995 ] final  -82.04 input   59.86 | X-H torsion
[ 10167 10162 10161 10158 ] final -101.95 input  -65.29 | X-H torsion
[ 10718 10713 10712 10709 ] final    5.64 input   66.30 | X-H torsion
[ 10763 10752 10751 10750 ] final   74.83 input  -60.55 | X-H torsion
[ 11005 11000 10999 10996 ] final   56.39 input  -57.11 | X-H torsion

> <Gold.Protein.ActiveResidues>
 VAL166  LYS551  ARG553  GLY616  TRP617  ASP618  TYR619  PRO620  LYS621  CYS622 
 ASP623  PHE694  ASN695  SER759  ASP760  ASP761  ALA762  ILE779  LEU786  VAL792 
 PHE793  MET794  SER795  GLU796  ALA797  LYS798  CYS799  TRP800  GLU811  SER814 

> <Gold.Protein.RotatedAtoms>
  151.3137  133.4070  159.2648 H   0  0  0  0  0  0  0  0  0  0  0  0  # atno 6907 bound_to 6896
  151.0093  134.9385  159.8008 H   0  0  0  0  0  0  0  0  0  0  0  0  # atno 6908 bound_to 6896
  152.5296  134.3101  159.9163 H   0  0  0  0  0  0  0  0  0  0  0  0  # atno 6909 bound_to 6896
  144.7254  140.2722  143.6249 H   0  0  0  0  0  0  0  0  0  0  0  0  # atno 7974 bound_to 7965
  154.6045  140.0639  156.9413 H   0  0  0  0  0  0  0  0  0  0  0  0  # atno 8008 bound_to 7997
  155.2076  140.3320  155.4315 H   0  0  0  0  0  0  0  0  0  0  0  0  # atno 8009 bound_to 7997
  156.2339  140.1853  156.7155 H   0  0  0  0  0  0  0  0  0  0  0  0  # atno 8010 bound_to 7997
  140.2359  143.3573  152.0845 H   0  0  0  0  0  0  0  0  0  0  0  0  # atno 10167 bound_to 10162
  156.9104  130.5754  149.5647 H   0  0  0  0  0  0  0  0  0  0  0  0  # atno 10718 bound_to 10713
  153.0613  135.5011  154.8100 H   0  0  0  0  0  0  0  0  0  0  0  0  # atno 10763 bound_to 10752
  154.6887  135.2980  154.9513 H   0  0  0  0  0  0  0  0  0  0  0  0  # atno 10764 bound_to 10752
  154.0274  135.6734  153.4830 H   0  0  0  0  0  0  0  0  0  0  0  0  # atno 10765 bound_to 10752
  140.0533  134.5706  155.9238 H   0  0  0  0  0  0  0  0  0  0  0  0  # atno 11005 bound_to 11000
  145.8032  139.1972  143.2036 LP  0  0  0  0  0  0  0  0  0  0  0  0  # atno 17320 bound_to 7965
  146.0659  140.7921  142.9712 LP  0  0  0  0  0  0  0  0  0  0  0  0  # atno 17321 bound_to 7965
  139.5094  144.6866  151.5871 LP  0  0  0  0  0  0  0  0  0  0  0  0  # atno 17342 bound_to 10162
  140.6150  143.9365  150.6482 LP  0  0  0  0  0  0  0  0  0  0  0  0  # atno 17343 bound_to 10162
  156.0539  130.5603  150.9048 LP  0  0  0  0  0  0  0  0  0  0  0  0  # atno 17370 bound_to 10713
  157.5971  131.0942  150.9023 LP  0  0  0  0  0  0  0  0  0  0  0  0  # atno 17371 bound_to 10713
  141.1940  133.6581  156.5575 LP  0  0  0  0  0  0  0  0  0  0  0  0  # atno 17394 bound_to 11000
  140.3884  134.7462  157.4706 LP  0  0  0  0  0  0  0  0  0  0  0  0  # atno 17395 bound_to 11000

$$$$
