AV-unprocessed.smi:987|AV-procd|sdf|4322|dock1
  -GOLD-   22720 2223D 1   1.00000     0.00000
 Structure written by MMmdl.
 50 52  0  0  0  0  0  0  0  0  1 V2000
  152.1131  145.0389  158.8486 C   0  0  0  0  0  0  0  0  0  0  0  0
  152.5295  143.5927  158.5601 C   0  0  2  0  0  0  0  0  0  0  0  0
  151.4220  142.8065  157.8344 C   0  0  0  0  0  0  0  0  0  0  0  0
  151.8090  141.4061  157.6771 N   0  0  0  0  0  0  0  0  0  0  0  0
  151.0415  140.5997  156.8089 C   0  0  0  0  0  0  0  0  0  0  0  0
  151.6077  140.1041  155.6109 C   0  0  0  0  0  0  0  0  0  0  0  0
  150.8227  139.3027  154.7607 C   0  0  0  0  0  0  0  0  0  0  0  0
  149.4950  139.0064  155.1244 C   0  0  0  0  0  0  0  0  0  0  0  0
  148.7195  138.2128  154.2366 N   0  0  0  0  0  0  0  0  0  0  0  0
  147.3823  138.1596  154.1129 C   0  0  0  0  0  0  0  0  0  0  0  0
  146.5782  138.7758  154.8119 O   0  0  0  0  0  0  0  0  0  0  0  0
  147.0222  137.3255  153.1273 N   0  0  0  0  0  0  0  0  0  0  0  0
  145.6523  137.0355  152.7108 C   0  0  0  0  0  0  0  0  0  0  0  0
  145.6087  136.2844  151.3726 C   0  0  0  0  0  0  0  0  0  0  0  0
  146.3030  137.1155  150.4625 O   0  0  0  0  0  0  0  0  0  0  0  0
  146.1057  134.8275  151.3662 C   0  0  0  0  0  0  0  0  0  0  0  0
  144.9656  134.4650  150.4129 C   0  0  0  0  0  0  0  0  0  0  0  0
  144.2601  135.7478  150.8553 C   0  0  0  0  0  0  0  0  0  0  0  0
  149.0083  139.5586  156.3328 C   0  0  0  0  0  0  0  0  0  0  0  0
  149.7572  140.3297  157.1490 N   0  0  0  0  0  0  0  0  0  0  0  0
  152.2191  140.7778  158.9300 C   0  0  0  0  0  0  0  0  0  0  0  0
  153.3022  141.6236  159.6264 C   0  0  2  0  0  0  0  0  0  0  0  0
  153.6739  141.0626  161.0029 C   0  0  0  0  0  0  0  0  0  0  0  0
  152.8205  142.9536  159.8002 O   0  0  0  0  0  0  0  0  0  0  0  0
  151.8864  145.5730  157.9256 H   0  0  0  0  0  0  0  0  0  0  0  0
  152.9102  145.5804  159.3583 H   0  0  0  0  0  0  0  0  0  0  0  0
  151.2268  145.0754  159.4828 H   0  0  0  0  0  0  0  0  0  0  0  0
  153.4315  143.6082  157.9456 H   0  0  0  0  0  0  0  0  0  0  0  0
  150.4896  142.8602  158.3984 H   0  0  0  0  0  0  0  0  0  0  0  0
  151.2397  143.2575  156.8580 H   0  0  0  0  0  0  0  0  0  0  0  0
  152.6223  140.3410  155.3275 H   0  0  0  0  0  0  0  0  0  0  0  0
  151.2394  138.9218  153.8398 H   0  0  0  0  0  0  0  0  0  0  0  0
  149.2445  137.5813  153.6496 H   0  0  0  0  0  0  0  0  0  0  0  0
  147.7541  136.8627  152.6087 H   0  0  0  0  0  0  0  0  0  0  0  0
  145.1678  136.4589  153.5002 H   0  0  0  0  0  0  0  0  0  0  0  0
  145.0814  137.9630  152.6445 H   0  0  0  0  0  0  0  0  0  0  0  0
  145.6547  137.6448  150.0233 H   0  0  0  0  0  0  0  0  0  0  0  0
  147.1025  134.6828  150.9476 H   0  0  0  0  0  0  0  0  0  0  0  0
  146.0095  134.3379  152.3365 H   0  0  0  0  0  0  0  0  0  0  0  0
  145.2677  134.4893  149.3648 H   0  0  0  0  0  0  0  0  0  0  0  0
  144.4369  133.5450  150.6629 H   0  0  0  0  0  0  0  0  0  0  0  0
  143.5370  135.5668  151.6518 H   0  0  0  0  0  0  0  0  0  0  0  0
  143.8182  136.3224  150.0405 H   0  0  0  0  0  0  0  0  0  0  0  0
  147.9919  139.4114  156.6624 H   0  0  0  0  0  0  0  0  0  0  0  0
  151.3445  140.6827  159.5749 H   0  0  0  0  0  0  0  0  0  0  0  0
  152.6033  139.7716  158.7687 H   0  0  0  0  0  0  0  0  0  0  0  0
  154.2019  141.6471  159.0088 H   0  0  0  0  0  0  0  0  0  0  0  0
  154.0607  140.0466  160.9204 H   0  0  0  0  0  0  0  0  0  0  0  0
  152.8092  141.0392  161.6667 H   0  0  0  0  0  0  0  0  0  0  0  0
  154.4424  141.6731  161.4772 H   0  0  0  0  0  0  0  0  0  0  0  0
  1  2  1  0  0  0  0
  1 25  1  0  0  0  0
  1 26  1  0  0  0  0
  1 27  1  0  0  0  0
  2 24  1  0  0  0  0
  2  3  1  0  0  0  0
  2 28  1  0  0  0  0
  3  4  1  0  0  0  0
  3 29  1  0  0  0  0
  3 30  1  0  0  0  0
  4  5  1  0  0  0  0
  4 21  1  0  0  0  0
  5 20  1  0  0  0  0
  5  6  2  0  0  0  0
  6  7  1  0  0  0  0
  6 31  1  0  0  0  0
  7  8  2  0  0  0  0
  7 32  1  0  0  0  0
  8  9  1  0  0  0  0
  8 19  1  0  0  0  0
  9 10  1  0  0  0  0
  9 33  1  0  0  0  0
 10 11  2  0  0  0  0
 10 12  1  0  0  0  0
 12 13  1  0  0  0  0
 12 34  1  0  0  0  0
 13 14  1  0  0  0  0
 13 35  1  0  0  0  0
 13 36  1  0  0  0  0
 14 18  1  0  0  0  0
 14 15  1  0  0  0  0
 14 16  1  0  0  0  0
 15 37  1  0  0  0  0
 16 17  1  0  0  0  0
 16 38  1  0  0  0  0
 16 39  1  0  0  0  0
 17 18  1  0  0  0  0
 17 40  1  0  0  0  0
 17 41  1  0  0  0  0
 18 42  1  0  0  0  0
 18 43  1  0  0  0  0
 19 20  2  0  0  0  0
 19 44  1  0  0  0  0
 21 22  1  0  0  0  0
 21 45  1  0  0  0  0
 21 46  1  0  0  0  0
 22 23  1  0  0  0  0
 22 24  1  0  0  0  0
 22 47  1  0  0  0  0
 23 48  1  0  0  0  0
 23 49  1  0  0  0  0
 23 50  1  0  0  0  0
M  END
> <s_m_source_file>
AV-unprocessed.smi

> <i_m_source_file_index>
987

> <i_lp_mmshare_version>
43012

> <i_f3d_flags>
0

> <s_epik_input>
W0NIM11bQ0BASF0xW0NIMl1OKFtDSDJdW0NASF0oTzEpW0NIM10pYzJbY0hdW2NIXWMoW2NIXW4yKVtOSF1DKD1PKVtOSF1bQ0gyXUMzKFtPSF0pW0NIMl1bQ0gyXVtDSDJdMw==

> <s_epik_cmdline>
J2VwaWtfcHl0aG9uJywgJy1waCcsICc3LjAnLCAnLXRuJywgJzgnLCAnLW1hJywgJzIwMCcsICctbWV0YWxfYmluZGluZycsICctaW1hZScsICc8aW5maWxlLm1hZT4nLCAnLW9tYWUnLCAnPG91dGZpbGUubWFlPic=

> <r_lp_tautomer_probability>
1

> <r_epik_Ionization_Penalty>
0.00275455

> <r_epik_Ionization_Penalty_Charging>
0

> <r_epik_Ionization_Penalty_Neutral>
0.00275455

> <r_epik_State_Penalty>
0.00189097

> <r_epik_Charging_Adjusted_Penalty>
0.00189097

> <i_epik_Tot_Q>
0

> <i_epik_Tot_abs_Q>
0

> <r_epik_Metal_State_Penalty>
-0

> <b_epik_Metal_Only>
0

> <s_lp_Force_Field>
OPLS_2005

> <r_lp_Energy>
27.7236

> <b_lp_Chiralities_Consistent>
1

> <s_lp_Variant>
AV-unprocessed.smi:987-2

> <Gold.Version>
5.8.1

> <Gold.Id.Protein>
6NUR|6NUR_protein|mol2

> <Gold.PLP.Fitness>
53.9818

> <Gold.PLP.PLP>
-45.1766

> <Gold.PLP.part.hbond>
-4.6376

> <Gold.PLP.part.metal>
0.0000

> <Gold.PLP.part.buried>
-1.6101

> <Gold.PLP.part.nonpolar>
-37.9580

> <Gold.PLP.part.repulsive>
0.1039

> <Gold.PLP.ligand.clash>
0.0000

> <Gold.PLP.ligand.torsion>
0.3987

> <Gold.PLP.Chemscore.Hbond>
3.0514

> <Gold.PLP.Chemscore.CHOScore>
0.0000

> <Gold.PLP.Chemscore.Metal>
0.0000

> <Gold.Chemscore.Hbonds>
donor molecule, donor type, donor heavy atom, donor atom, acceptor molecule, acceptor atom, score
      L1  H     9    33       P1  7948  0.40
      L1  H    12    34       P1  7948  1.00
      L1  H    15    37       P1 10171  1.00
      P1  H  7954  7966       L1    15  0.76

> <Gold.PLP.Chemscore.Internal.Correction>
0.4482

> <Gold.Rescore>
     Score         DG    S(hbond)    S(metal)    S(lipo)     H(rot)  DE(clash)    DE(int)     intcor
     22.02     -23.95       3.02        0.00     113.86       1.93       0.41       1.53       ----

> <Gold.Chemscore.Fitness>
22.0177

> <Gold.Chemscore.DG>
-23.9513

> <Gold.Chemscore.ZeroCoef>
-5.4800

> <Gold.Chemscore.Hbond>
3.0243

> <Gold.Chemscore.Metal>
0.0000

> <Gold.Chemscore.Lipo>
113.8550

> <Gold.Chemscore.Internal_Hbond>
0.0000

> <Gold.Chemscore.DEClash>
0.4073

> <Gold.Chemscore.DEInternal>
1.5263

> <Gold.Chemscore.Rot>
1.9340

> <Gold.Chemscore.Internal.Correction>
   9.000000E+99

> <Gold.Chemscore.Hbonds>
donor molecule, donor type, donor heavy atom, donor atom, acceptor molecule, acceptor atom, score
      L1  H     9    33       P1  7948  0.39
      L1  H    12    34       P1  7948  0.94
      L1  H    15    37       P1 10171  0.94
      P1  H  7954  7966       L1    15  0.40

> <Gold.Chemscore.Hbond.Weighted>
-10.1012

> <Gold.Chemscore.Metal.Weighted>
-0.0000

> <Gold.Chemscore.Lipo.Weighted>
-13.3210

> <Gold.Chemscore.Internal_Hbond.Weighted>
0.0000

> <Gold.Chemscore.DEClash.Weighted>
0.4073

> <Gold.Chemscore.DEInternal.Weighted>
1.5263

> <Gold.Chemscore.Rot.Weighted>
4.9509

> <Gold.Chemscore.Internal.Correction.Weighted>
   9.000000E+99

> <Gold.Protein.RotatedTorsions>
[ 6907 6896 6895 6894 ] final   37.64 input  -60.11 | X-H torsion
[ 7974 7965 7964 7962 ] final   71.11 input  175.53 | X-H torsion
[ 8008 7997 7996 7995 ] final  -50.34 input   59.86 | X-H torsion
[ 10167 10162 10161 10158 ] final  155.07 input  -65.29 | X-H torsion
[ 10718 10713 10712 10709 ] final   83.19 input   66.30 | X-H torsion
[ 10763 10752 10751 10750 ] final -132.75 input  -60.55 | X-H torsion
[ 11005 11000 10999 10996 ] final   47.48 input  -57.11 | X-H torsion

> <Gold.Protein.ActiveResidues>
 VAL166  LYS551  ARG553  GLY616  TRP617  ASP618  TYR619  PRO620  LYS621  CYS622 
 ASP623  PHE694  ASN695  SER759  ASP760  ASP761  ALA762  ILE779  LEU786  VAL792 
 PHE793  MET794  SER795  GLU796  ALA797  LYS798  CYS799  TRP800  GLU811  SER814 

> <Gold.Protein.RotatedAtoms>
  152.1458  134.9027  160.0550 H   0  0  0  0  0  0  0  0  0  0  0  0  # atno 6907 bound_to 6896
  152.0077  133.3844  159.4215 H   0  0  0  0  0  0  0  0  0  0  0  0  # atno 6908 bound_to 6896
  150.6870  134.3686  159.5026 H   0  0  0  0  0  0  0  0  0  0  0  0  # atno 6909 bound_to 6896
  145.7698  139.2838  143.1327 H   0  0  0  0  0  0  0  0  0  0  0  0  # atno 7974 bound_to 7965
  154.4060  140.1274  156.4650 H   0  0  0  0  0  0  0  0  0  0  0  0  # atno 8008 bound_to 7997
  155.7236  140.3492  155.5007 H   0  0  0  0  0  0  0  0  0  0  0  0  # atno 8009 bound_to 7997
  155.9192  140.1049  157.1210 H   0  0  0  0  0  0  0  0  0  0  0  0  # atno 8010 bound_to 7997
  139.4822  144.5131  151.7993 H   0  0  0  0  0  0  0  0  0  0  0  0  # atno 10167 bound_to 10162
  157.6873  131.0080  150.2486 H   0  0  0  0  0  0  0  0  0  0  0  0  # atno 10718 bound_to 10713
  154.8740  135.3788  154.4461 H   0  0  0  0  0  0  0  0  0  0  0  0  # atno 10763 bound_to 10752
  153.5142  135.7029  153.5770 H   0  0  0  0  0  0  0  0  0  0  0  0  # atno 10764 bound_to 10752
  153.4046  135.3940  155.1976 H   0  0  0  0  0  0  0  0  0  0  0  0  # atno 10765 bound_to 10752
  140.1276  134.4748  155.8547 H   0  0  0  0  0  0  0  0  0  0  0  0  # atno 11005 bound_to 11000
  146.0181  140.8374  142.9937 LP  0  0  0  0  0  0  0  0  0  0  0  0  # atno 17320 bound_to 7965
  144.6814  140.2588  143.7322 LP  0  0  0  0  0  0  0  0  0  0  0  0  # atno 17321 bound_to 7965
  140.4637  144.1686  150.5909 LP  0  0  0  0  0  0  0  0  0  0  0  0  # atno 17342 bound_to 10162
  140.4457  143.2507  151.9414 LP  0  0  0  0  0  0  0  0  0  0  0  0  # atno 17343 bound_to 10162
  156.3087  130.3769  149.7682 LP  0  0  0  0  0  0  0  0  0  0  0  0  # atno 17370 bound_to 10713
  156.5289  130.8248  151.3230 LP  0  0  0  0  0  0  0  0  0  0  0  0  # atno 17371 bound_to 10713
  141.2164  133.6783  156.7007 LP  0  0  0  0  0  0  0  0  0  0  0  0  # atno 17394 bound_to 11000
  140.2884  134.8260  157.3995 LP  0  0  0  0  0  0  0  0  0  0  0  0  # atno 17395 bound_to 11000

$$$$
