#       Name:                AV-unprocessed.smi:2162
#       Creating user name   scv26
#       Creation time:       Fri Mar 27 11:58:48 2020


#       File generated by GOLD software.
#

@<TRIPOS>MOLECULE
AV-unprocessed.smi:2162
    46    47     1
SMALL
NO_CHARGES


@<TRIPOS>ATOM
      1 ****        -1.8400   1.6153  -3.1358 C.3            1 S1                 0.0000
      2 ****        -2.0129   1.5893  -1.6561 C.2            1 S1                 0.0000
      3 ****        -2.8558   0.7677  -1.0253 N.2            1 S1                 0.0000
      4 ****        -2.8158   0.9189   0.3642 C.2            1 S1                 0.0000
      5 ****        -3.6599   0.0378   1.2407 C.3            1 S1                 0.0000
      6 ****        -3.1522  -1.4161   1.3389 C.3            1 S1                 0.0000
      7 ****        -1.7521  -1.4898   1.7528 N.am           1 S1                 0.0000
      8 ****        -0.7055  -1.6196   0.9217 C.2            1 S1                 0.0000
      9 ****        -0.8230  -1.7756  -0.2944 O.2            1 S1                 0.0000
     10 ****         0.6911  -1.5121   1.5540 C.3            1 S1                 0.0000
     11 ****         1.6402  -2.6192   1.0571 C.3            1 S1                 0.0000
     12 ****         2.5703  -1.8915   0.0983 C.2            1 S1                 0.0000
     13 ****         3.3661  -2.4822  -0.6303 O.2            1 S1                 0.0000
     14 ****         2.3710  -0.5672   0.1430 N.am           1 S1                 0.0000
     15 ****         3.0075   0.4268  -0.7305 C.3            1 S1                 0.0000
     16 ****         3.2018   1.7869  -0.0355 C.3            1 S1                 0.0000
     17 ****         2.2153   0.5605  -2.0410 C.3            1 S1                 0.0000
     18 ****         1.3884  -0.1978   1.1527 C.3            1 S1                 0.0000
     19 ****        -1.9465   1.8987   0.7763 C.2            1 S1                 0.0000
     20 ****        -1.1225   2.6435  -0.5652 S.3            1 S1                 0.0000
     21 ****        -2.2342   0.7026  -3.5837 H              1 S1                 0.0000
     22 ****        -0.7824   1.6966  -3.3869 H              1 S1                 0.0000
     23 ****        -2.3678   2.4708  -3.5570 H              1 S1                 0.0000
     24 ****        -3.7070   0.4612   2.2448 H              1 S1                 0.0000
     25 ****        -4.6884   0.0316   0.8787 H              1 S1                 0.0000
     26 ****        -3.7537  -1.9660   2.0629 H              1 S1                 0.0000
     27 ****        -3.2951  -1.9226   0.3829 H              1 S1                 0.0000
     28 ****        -1.5622  -1.3700   2.7372 H              1 S1                 0.0000
     29 ****         0.5945  -1.5643   2.6397 H              1 S1                 0.0000
     30 ****         2.2230  -3.0342   1.8799 H              1 S1                 0.0000
     31 ****         1.1312  -3.4440   0.5557 H              1 S1                 0.0000
     32 ****         4.0044   0.0611  -0.9826 H              1 S1                 0.0000
     33 ****         3.7669   2.4683  -0.6720 H              1 S1                 0.0000
     34 ****         3.7557   1.6775   0.8974 H              1 S1                 0.0000
     35 ****         2.2506   2.2697   0.1906 H              1 S1                 0.0000
     36 ****         2.6935   1.2682  -2.7185 H              1 S1                 0.0000
     37 ****         1.2000   0.9113  -1.8549 H              1 S1                 0.0000
     38 ****         2.1446  -0.3954  -2.5612 H              1 S1                 0.0000
     39 ****         0.6915   0.5452   0.7631 H              1 S1                 0.0000
     40 ****         1.8964   0.2427   2.0115 H              1 S1                 0.0000
     41 ****        -1.7281   2.2136   1.7857 H              1 S1                 0.0000
     42 ****        -3.4506   0.1156  -1.4953 LP             1 S1                 0.0000
     43 ****        -1.7326  -1.8108  -0.7084 LP             1 S1                 0.0000
     44 ****        -0.0088  -1.8670  -0.8677 LP             1 S1                 0.0000
     45 ****         3.4196  -3.4804  -0.6067 LP             1 S1                 0.0000
     46 ****         3.9596  -1.9641  -1.2462 LP             1 S1                 0.0000
@<TRIPOS>BOND
    1    1    2 1     
    2    1   21 1     
    3    1   22 1     
    4    1   23 1     
    5    2   20 1     
    6    2    3 2     
    7    3    4 1     
    8    4    5 1     
    9    4   19 2     
   10    5    6 1     
   11    5   24 1     
   12    5   25 1     
   13    6    7 1     
   14    6   26 1     
   15    6   27 1     
   16    7    8 am    
   17    7   28 1     
   18    8    9 2     
   19    8   10 1     
   20   10   18 1     
   21   10   11 1     
   22   10   29 1     
   23   11   12 1     
   24   11   30 1     
   25   11   31 1     
   26   12   13 2     
   27   12   14 am    
   28   14   15 1     
   29   14   18 1     
   30   15   16 1     
   31   15   17 1     
   32   15   32 1     
   33   16   33 1     
   34   16   34 1     
   35   16   35 1     
   36   17   36 1     
   37   17   37 1     
   38   17   38 1     
   39   18   39 1     
   40   18   40 1     
   41   19   20 1     
   42   19   41 1     
   43    3   42 1     
   44    9   43 1     
   45    9   44 1     
   46   13   45 1     
   47   13   46 1     
@<TRIPOS>SUBSTRUCTURE
      1 S1             1
@<TRIPOS>SET
LONE_PAIRS      STATIC     ATOMS    <user>   **** ""
5 42 43 44 45 46
DONOR_HYDROGENS      STATIC     ATOMS    <user>   **** ""
1 28
ATOM$BLUE        STATIC     ATOMS    COLORGROUP SYSTEM
5 42 43 44 45 46
ATOM$RED        STATIC     ATOMS    COLORGROUP SYSTEM
1 28
