AV-unprocessed.smi:788|AV-procd|sdf|3737|dock7
  -GOLD-   22720 1173D 1   1.00000     0.00000
 Structure written by MMmdl.
 34 35  0  0  0  0  0  0  0  0  2 V2000
  153.2489  142.0249  162.1793 C   0  0  0  0  0  0  0  0  0  0  0  0
  152.9644  143.0130  161.0332 C   0  0  2  0  0  0  0  0  0  0  0  0
  151.9969  144.1158  161.5032 C   0  0  0  0  0  0  0  0  0  0  0  0
  151.7126  145.1315  160.3897 C   0  0  0  0  0  0  0  0  0  0  0  0
  151.1557  144.4340  159.1426 C   0  0  0  0  0  0  0  0  0  0  0  0
  152.1087  143.3356  158.6340 C   0  0  2  0  0  0  0  0  0  0  0  0
  151.5334  142.6684  157.3713 C   0  0  0  0  0  0  0  0  0  0  0  0
  152.4240  142.3142  159.7579 C   0  0  1  0  0  0  0  0  0  0  0  0
  153.4026  141.3399  159.2711 N   0  0  0  0  0  0  0  0  0  0  0  0
  153.1954  140.0338  159.0083 C   0  0  0  0  0  0  0  0  0  0  0  0
  152.0808  139.5512  159.2024 O   0  0  0  0  0  0  0  0  0  0  0  0
  154.2452  139.3109  158.5367 N   0  5  0  0  0  0  0  0  0  0  0  0
  154.3660  137.9872  158.7484 C   0  0  0  0  0  0  0  0  0  0  0  0
  153.6076  137.3278  159.6392 N   0  0  0  0  0  0  0  0  0  0  0  0
  153.8990  135.9721  159.7059 N   0  0  0  0  0  0  0  0  0  0  0  0
  154.8676  135.6406  158.8525 C   0  0  0  0  0  0  0  0  0  0  0  0
  155.5135  136.9540  157.8915 S   0  0  0  0  0  0  0  0  0  0  0  0
  152.3522  141.4682  162.4526 H   0  0  0  0  0  0  0  0  0  0  0  0
  153.6005  142.5473  163.0692 H   0  0  0  0  0  0  0  0  0  0  0  0
  154.0185  141.3022  161.9078 H   0  0  0  0  0  0  0  0  0  0  0  0
  153.9105  143.4936  160.7785 H   0  0  0  0  0  0  0  0  0  0  0  0
  151.0591  143.6671  161.8338 H   0  0  0  0  0  0  0  0  0  0  0  0
  152.4126  144.6335  162.3683 H   0  0  0  0  0  0  0  0  0  0  0  0
  151.0043  145.8814  160.7428 H   0  0  0  0  0  0  0  0  0  0  0  0
  152.6289  145.6655  160.1351 H   0  0  0  0  0  0  0  0  0  0  0  0
  150.1817  144.0002  159.3727 H   0  0  0  0  0  0  0  0  0  0  0  0
  150.9862  145.1737  158.3593 H   0  0  0  0  0  0  0  0  0  0  0  0
  153.0436  143.8200  158.3472 H   0  0  0  0  0  0  0  0  0  0  0  0
  150.6151  142.1252  157.5961 H   0  0  0  0  0  0  0  0  0  0  0  0
  152.2376  141.9620  156.9310 H   0  0  0  0  0  0  0  0  0  0  0  0
  151.3029  143.4099  156.6063 H   0  0  0  0  0  0  0  0  0  0  0  0
  151.4905  141.8136  160.0204 H   0  0  0  0  0  0  0  0  0  0  0  0
  154.3341  141.6926  159.1077 H   0  0  0  0  0  0  0  0  0  0  0  0
  155.2034  134.6166  158.7880 H   0  0  0  0  0  0  0  0  0  0  0  0
  1  2  1  0  0  0  0
  1 18  1  0  0  0  0
  1 19  1  0  0  0  0
  1 20  1  0  0  0  0
  2  8  1  0  0  0  0
  2  3  1  0  0  0  0
  2 21  1  0  0  0  0
  3  4  1  0  0  0  0
  3 22  1  0  0  0  0
  3 23  1  0  0  0  0
  4  5  1  0  0  0  0
  4 24  1  0  0  0  0
  4 25  1  0  0  0  0
  5  6  1  0  0  0  0
  5 26  1  0  0  0  0
  5 27  1  0  0  0  0
  6  7  1  0  0  0  0
  6  8  1  0  0  0  0
  6 28  1  0  0  0  0
  7 29  1  0  0  0  0
  7 30  1  0  0  0  0
  7 31  1  0  0  0  0
  8  9  1  0  0  0  0
  8 32  1  0  0  0  0
  9 10  1  0  0  0  0
  9 33  1  0  0  0  0
 10 11  2  0  0  0  0
 10 12  1  0  0  0  0
 12 13  1  0  0  0  0
 13 17  1  0  0  0  0
 13 14  2  0  0  0  0
 14 15  1  0  0  0  0
 15 16  2  0  0  0  0
 16 17  1  0  0  0  0
 16 34  1  0  0  0  0
M  CHG  1  12  -1
M  END
> <s_m_source_file>
AV-unprocessed.smi

> <i_m_source_file_index>
788

> <i_lp_mmshare_version>
43012

> <i_f3d_flags>
0

> <s_epik_input>
W0NIM11bQ0BASF0xW0NIMl1bQ0gyXVtDSDJdW0NAQEhdKFtDSDNdKVtDQEhdMVtOSF1DKD1PKVtOSF1jMm5uW2NIXXMy

> <s_epik_cmdline>
J2VwaWtfcHl0aG9uJywgJy1waCcsICc3LjAnLCAnLXRuJywgJzgnLCAnLW1hJywgJzIwMCcsICctbWV0YWxfYmluZGluZycsICctaW1hZScsICc8aW5maWxlLm1hZT4nLCAnLW9tYWUnLCAnPG91dGZpbGUubWFlPic=

> <r_lp_tautomer_probability>
1

> <r_epik_Ionization_Penalty>
4.58638

> <r_epik_Ionization_Penalty_Charging>
4.53816

> <r_epik_Ionization_Penalty_Neutral>
0.048215

> <r_epik_State_Penalty>
4.53788

> <r_epik_Charging_Adjusted_Penalty>
9.07605

> <i_epik_Tot_Q>
-1

> <i_epik_Tot_abs_Q>
1

> <r_epik_Metal_State_Penalty>
0.838628

> <b_epik_Metal_Only>
1

> <s_lp_Force_Field>
OPLS_2005

> <r_lp_Energy>
11.4954

> <b_lp_Chiralities_Consistent>
1

> <s_lp_Variant>
AV-unprocessed.smi:788-7

> <Gold.Version>
5.8.1

> <Gold.Id.Protein>
6NUR|6NUR_protein|mol2

> <Gold.PLP.Fitness>
43.4884

> <Gold.PLP.PLP>
-35.0159

> <Gold.PLP.part.hbond>
-2.0000

> <Gold.PLP.part.metal>
0.0000

> <Gold.PLP.part.buried>
-4.7174

> <Gold.PLP.part.nonpolar>
-27.0982

> <Gold.PLP.part.repulsive>
0.0844

> <Gold.PLP.ligand.clash>
0.0000

> <Gold.PLP.ligand.torsion>
0.2669

> <Gold.PLP.Chemscore.Hbond>
3.0000

> <Gold.PLP.Chemscore.CHOScore>
0.0000

> <Gold.PLP.Chemscore.Metal>
0.0000

> <Gold.Chemscore.Hbonds>
donor molecule, donor type, donor heavy atom, donor atom, acceptor molecule, acceptor atom, score
      P1  H  6896  6909       L1    15  1.00
      P1  H  7997  8008       L1    12  2.00

> <Gold.PLP.Chemscore.Internal.Correction>
0.0063

> <Gold.Rescore>
     Score         DG    S(hbond)    S(metal)    S(lipo)     H(rot)  DE(clash)    DE(int)     intcor
     18.72     -20.63       1.87        0.00      97.82       1.00       0.21       1.69       ----

> <Gold.Chemscore.Fitness>
18.7214

> <Gold.Chemscore.DG>
-20.6252

> <Gold.Chemscore.ZeroCoef>
-5.4800

> <Gold.Chemscore.Hbond>
1.8742

> <Gold.Chemscore.Metal>
0.0000

> <Gold.Chemscore.Lipo>
97.8232

> <Gold.Chemscore.Internal_Hbond>
0.0000

> <Gold.Chemscore.DEClash>
0.2118

> <Gold.Chemscore.DEInternal>
1.6920

> <Gold.Chemscore.Rot>
1.0000

> <Gold.Chemscore.Internal.Correction>
   9.000000E+99

> <Gold.Chemscore.Hbonds>
donor molecule, donor type, donor heavy atom, donor atom, acceptor molecule, acceptor atom, score
      P1  H  6896  6909       L1    15  0.69
      P1  H  7997  8008       L1    12  0.80

> <Gold.Chemscore.Hbond.Weighted>
-6.2599

> <Gold.Chemscore.Metal.Weighted>
-0.0000

> <Gold.Chemscore.Lipo.Weighted>
-11.4453

> <Gold.Chemscore.Internal_Hbond.Weighted>
0.0000

> <Gold.Chemscore.DEClash.Weighted>
0.2118

> <Gold.Chemscore.DEInternal.Weighted>
1.6920

> <Gold.Chemscore.Rot.Weighted>
2.5600

> <Gold.Chemscore.Internal.Correction.Weighted>
   9.000000E+99

> <Gold.Protein.RotatedTorsions>
[ 6907 6896 6895 6894 ] final  158.15 input  -60.11 | X-H torsion
[ 7974 7965 7964 7962 ] final   34.73 input  175.53 | X-H torsion
[ 8008 7997 7996 7995 ] final -109.99 input   59.86 | X-H torsion
[ 10167 10162 10161 10158 ] final  121.33 input  -65.29 | X-H torsion
[ 10718 10713 10712 10709 ] final   58.49 input   66.30 | X-H torsion
[ 10763 10752 10751 10750 ] final  138.72 input  -60.55 | X-H torsion
[ 11005 11000 10999 10996 ] final   60.01 input  -57.11 | X-H torsion

> <Gold.Protein.ActiveResidues>
 VAL166  LYS551  ARG553  GLY616  TRP617  ASP618  TYR619  PRO620  LYS621  CYS622 
 ASP623  PHE694  ASN695  SER759  ASP760  ASP761  ALA762  ILE779  LEU786  VAL792 
 PHE793  MET794  SER795  GLU796  ALA797  LYS798  CYS799  TRP800  GLU811  SER814 

> <Gold.Protein.RotatedAtoms>
  152.0046  133.3838  159.4195 H   0  0  0  0  0  0  0  0  0  0  0  0  # atno 6907 bound_to 6896
  150.6906  134.3797  159.5038 H   0  0  0  0  0  0  0  0  0  0  0  0  # atno 6908 bound_to 6896
  152.1549  134.8958  160.0596 H   0  0  0  0  0  0  0  0  0  0  0  0  # atno 6909 bound_to 6896
  146.1333  139.6232  142.9212 H   0  0  0  0  0  0  0  0  0  0  0  0  # atno 7974 bound_to 7965
  154.9677  140.0398  157.2220 H   0  0  0  0  0  0  0  0  0  0  0  0  # atno 8008 bound_to 7997
  154.7830  140.2822  155.6027 H   0  0  0  0  0  0  0  0  0  0  0  0  # atno 8009 bound_to 7997
  156.2939  140.2588  156.2660 H   0  0  0  0  0  0  0  0  0  0  0  0  # atno 8010 bound_to 7997
  139.5926  144.7031  151.3252 H   0  0  0  0  0  0  0  0  0  0  0  0  # atno 10167 bound_to 10162
  157.5600  130.8828  149.9096 H   0  0  0  0  0  0  0  0  0  0  0  0  # atno 10718 bound_to 10713
  153.8943  135.3029  155.3448 H   0  0  0  0  0  0  0  0  0  0  0  0  # atno 10763 bound_to 10752
  154.7701  135.4890  153.9635 H   0  0  0  0  0  0  0  0  0  0  0  0  # atno 10764 bound_to 10752
  153.1280  135.6797  153.9324 H   0  0  0  0  0  0  0  0  0  0  0  0  # atno 10765 bound_to 10752
  140.0262  134.6079  155.9569 H   0  0  0  0  0  0  0  0  0  0  0  0  # atno 11005 bound_to 11000
  145.5213  141.0432  143.2434 LP  0  0  0  0  0  0  0  0  0  0  0  0  # atno 17320 bound_to 7965
  144.7713  139.6729  143.7193 LP  0  0  0  0  0  0  0  0  0  0  0  0  # atno 17321 bound_to 7965
  140.7186  143.7198  150.7704 LP  0  0  0  0  0  0  0  0  0  0  0  0  # atno 17342 bound_to 10162
  140.0758  143.5017  152.2556 LP  0  0  0  0  0  0  0  0  0  0  0  0  # atno 17343 bound_to 10162
  156.0654  130.3693  150.0891 LP  0  0  0  0  0  0  0  0  0  0  0  0  # atno 17370 bound_to 10713
  156.9055  130.9634  151.3570 LP  0  0  0  0  0  0  0  0  0  0  0  0  # atno 17371 bound_to 10713
  141.1804  133.6546  156.4998 LP  0  0  0  0  0  0  0  0  0  0  0  0  # atno 17394 bound_to 11000
  140.4302  134.7109  157.4937 LP  0  0  0  0  0  0  0  0  0  0  0  0  # atno 17395 bound_to 11000

$$$$
