#       Name:                AV-unprocessed.smi:3028
#       Creating user name   scv26
#       Creation time:       Fri Mar 27 16:46:26 2020


#       File generated by GOLD software.
#

@<TRIPOS>MOLECULE
AV-unprocessed.smi:3028
    53    54     1
SMALL
NO_CHARGES


@<TRIPOS>ATOM
      1 ****        -4.1510  -4.7371  -2.6737 C.3            1 S1                 0.0000
      2 ****        -3.4752  -3.5457  -2.0585 C.2            1 S1                 0.0000
      3 ****        -2.7976  -2.4856  -2.7239 C.2            1 S1                 0.0000
      4 ****        -2.3086  -1.5853  -1.8882 N.2            1 S1                 0.0000
      5 ****        -2.6596  -2.0294  -0.6597 N.pl3          1 S1                 0.0000
      6 ****        -2.2676  -1.2926   0.5398 C.3            1 S1                 0.0000
      7 ****        -2.6124   0.2051   0.4333 C.3            1 S1                 0.0000
      8 ****        -0.8055  -1.5787   0.9903 C.3            1 S1                 0.0000
      9 ****        -0.5772  -3.0641   1.3186 C.3            1 S1                 0.0000
     10 ****         0.1671  -1.2233  -0.0395 N.3            1 S1                 0.0000
     11 ****         0.8232   0.0696   0.1964 C.3            1 S1                 0.0000
     12 ****         1.8056   0.4496  -0.9227 C.2            1 S1                 0.0000
     13 ****         1.9453  -0.2815  -1.9026 O.2            1 S1                 0.0000
     14 ****         2.5044   1.5926  -0.8201 N.am           1 S1                 0.0000
     15 ****         3.4805   2.1340  -1.7633 C.3            1 S1                 0.0000
     16 ****         4.5608   2.9105  -0.9959 C.3            1 S1                 0.0000
     17 ****         5.5130   3.6241  -1.9694 C.3            1 S1                 0.0000
     18 ****         4.7738   4.4838  -2.8302 O.3            1 S1                 0.0000
     19 ****         3.8418   3.7832  -3.6473 C.3            1 S1                 0.0000
     20 ****         2.7972   3.0757  -2.7689 C.3            1 S1                 0.0000
     21 ****        -3.3588  -3.2166  -0.7377 C.2            1 S1                 0.0000
     22 ****        -3.7448  -4.9685  -3.6586 H              1 S1                 0.0000
     23 ****        -5.2212  -4.5711  -2.7981 H              1 S1                 0.0000
     24 ****        -4.0324  -5.6304  -2.0603 H              1 S1                 0.0000
     25 ****        -2.6458  -2.3455  -3.7841 H              1 S1                 0.0000
     26 ****        -2.9046  -1.6718   1.3402 H              1 S1                 0.0000
     27 ****        -2.3540   0.7331   1.3514 H              1 S1                 0.0000
     28 ****        -3.6804   0.3451   0.2647 H              1 S1                 0.0000
     29 ****        -2.0886   0.6905  -0.3899 H              1 S1                 0.0000
     30 ****        -0.6024  -1.0188   1.9049 H              1 S1                 0.0000
     31 ****        -1.2773  -3.4095   2.0795 H              1 S1                 0.0000
     32 ****         0.4296  -3.2296   1.7040 H              1 S1                 0.0000
     33 ****        -0.7004  -3.7003   0.4414 H              1 S1                 0.0000
     34 ****        -0.2830  -1.2573  -0.9442 H              1 S1                 0.0000
     35 ****         0.0720   0.8528   0.2809 H              1 S1                 0.0000
     36 ****         1.3626   0.0286   1.1433 H              1 S1                 0.0000
     37 ****         2.3354   2.1502   0.0047 H              1 S1                 0.0000
     38 ****         3.9764   1.3302  -2.3081 H              1 S1                 0.0000
     39 ****         4.0947   3.6515  -0.3446 H              1 S1                 0.0000
     40 ****         5.1237   2.2365  -0.3493 H              1 S1                 0.0000
     41 ****         6.2373   4.2201  -1.4142 H              1 S1                 0.0000
     42 ****         6.0803   2.9018  -2.5587 H              1 S1                 0.0000
     43 ****         3.3513   4.4957  -4.3108 H              1 S1                 0.0000
     44 ****         4.3653   3.0665  -4.2819 H              1 S1                 0.0000
     45 ****         2.0963   2.5245  -3.3962 H              1 S1                 0.0000
     46 ****         2.2129   3.8267  -2.2351 H              1 S1                 0.0000
     47 ****        -3.7121  -3.7261   0.1467 H              1 S1                 0.0000
     48 ****        -1.7931  -0.7587  -2.1144 LP             1 S1                 0.0000
     49 ****         0.9072  -1.8950  -0.0072 LP             1 S1                 0.0000
     50 ****         1.4181  -1.1282  -1.9740 LP             1 S1                 0.0000
     51 ****         2.5861  -0.0289  -2.6276 LP             1 S1                 0.0000
     52 ****         5.4157   4.9698  -3.4234 LP             1 S1                 0.0000
     53 ****         4.2735   5.1434  -2.2693 LP             1 S1                 0.0000
@<TRIPOS>BOND
    1    1    2 1     
    2    1   22 1     
    3    1   23 1     
    4    1   24 1     
    5    2   21 2     
    6    2    3 1     
    7    3    4 2     
    8    3   25 1     
    9    4    5 1     
   10    5    6 1     
   11    5   21 1     
   12    6    7 1     
   13    6    8 1     
   14    6   26 1     
   15    7   27 1     
   16    7   28 1     
   17    7   29 1     
   18    8    9 1     
   19    8   10 1     
   20    8   30 1     
   21    9   31 1     
   22    9   32 1     
   23    9   33 1     
   24   10   11 1     
   25   10   34 1     
   26   11   12 1     
   27   11   35 1     
   28   11   36 1     
   29   12   13 2     
   30   12   14 am    
   31   14   15 1     
   32   14   37 1     
   33   15   20 1     
   34   15   16 1     
   35   15   38 1     
   36   16   17 1     
   37   16   39 1     
   38   16   40 1     
   39   17   18 1     
   40   17   41 1     
   41   17   42 1     
   42   18   19 1     
   43   19   20 1     
   44   19   43 1     
   45   19   44 1     
   46   20   45 1     
   47   20   46 1     
   48   21   47 1     
   49    4   48 1     
   50   10   49 1     
   51   13   50 1     
   52   13   51 1     
   53   18   52 1     
   54   18   53 1     
@<TRIPOS>SUBSTRUCTURE
      1 S1             1
@<TRIPOS>SET
LONE_PAIRS      STATIC     ATOMS    <user>   **** ""
6 48 49 50 51 52 53
DONOR_HYDROGENS      STATIC     ATOMS    <user>   **** ""
2 34 37
ATOM$BLUE        STATIC     ATOMS    COLORGROUP SYSTEM
6 48 49 50 51 52 53
ATOM$RED        STATIC     ATOMS    COLORGROUP SYSTEM
2 34 37
