#       Name:                AV-unprocessed.smi:1987
#       Creating user name   scv26
#       Creation time:       Fri Mar 27 10:25:51 2020


#       File generated by GOLD software.
#

@<TRIPOS>MOLECULE
AV-unprocessed.smi:1987
    42    44     1
SMALL
NO_CHARGES


@<TRIPOS>ATOM
      1 ****        -1.0746   1.8344  -2.9795 O.2            1 S1                 0.0000
      2 ****        -1.6222   0.7871  -2.6373 C.2            1 S1                 0.0000
      3 ****        -3.1194   0.7656  -2.3349 C.3            1 S1                 0.0000
      4 ****        -3.3327   0.7827  -0.8994 N.pl3          1 S1                 0.0000
      5 ****        -3.4112   1.7985  -0.0374 C.2            1 S1                 0.0000
      6 ****        -3.5560   1.3718   1.2080 N.2            1 S1                 0.0000
      7 ****        -3.5709  -0.0061   1.0700 N.2            1 S1                 0.0000
      8 ****        -3.4388  -0.3618  -0.1780 N.2            1 S1                 0.0000
      9 ****        -0.9650  -0.3675  -2.4507 N.am           1 S1                 0.0000
     10 ****         0.4847  -0.5187  -2.4510 C.3            1 S1                 0.0000
     11 ****         1.1103   0.0594  -1.1652 C.3            1 S1                 0.0000
     12 ****         2.6029  -0.2217  -1.0069 C.3            1 S1                 0.0000
     13 ****         2.8565  -0.0833   0.5007 C.3            1 S1                 0.0000
     14 ****         1.5377  -0.1803   1.1698 N.4            1 S1                 1.0000
     15 ****         1.5083  -1.0879   2.3359 C.3            1 S1                 0.0000
     16 ****         0.4740  -0.7068   3.3683 C.3            1 S1                 0.0000
     17 ****         1.9402  -0.4311   3.6248 C.3            1 S1                 0.0000
     18 ****         0.5359  -0.5041   0.1360 C.3            1 S1                 0.0000
     19 ****        -3.6070   1.6359  -2.7761 H              1 S1                 0.0000
     20 ****        -3.5839  -0.1237  -2.7638 H              1 S1                 0.0000
     21 ****        -3.3441   2.8395  -0.3174 H              1 S1                 0.0000
     22 ****        -1.5060  -1.1799  -2.1902 H              1 S1                 0.0000
     23 ****         0.7081  -1.5828  -2.5327 H              1 S1                 0.0000
     24 ****         0.9129  -0.0416  -3.3343 H              1 S1                 0.0000
     25 ****         0.9703   1.1418  -1.1553 H              1 S1                 0.0000
     26 ****         2.8266  -1.2428  -1.3197 H              1 S1                 0.0000
     27 ****         3.2229   0.4508  -1.6008 H              1 S1                 0.0000
     28 ****         3.5531  -0.8474   0.8493 H              1 S1                 0.0000
     29 ****         3.2901   0.8894   0.7348 H              1 S1                 0.0000
     30 ****         1.7364  -2.1350   2.1432 H              1 S1                 0.0000
     31 ****        -0.1707   0.1461   3.1617 H              1 S1                 0.0000
     32 ****         0.0113  -1.5115   3.9363 H              1 S1                 0.0000
     33 ****         2.4428  -1.0547   4.3616 H              1 S1                 0.0000
     34 ****         2.2715   0.6052   3.5891 H              1 S1                 0.0000
     35 ****        -0.4378  -0.0808   0.3853 H              1 S1                 0.0000
     36 ****         0.4234  -1.5869   0.0560 H              1 S1                 0.0000
     37 ****         1.3188   0.7485   1.5011 H              1 S1                 0.0000
     38 ****        -1.6098   2.6752  -3.0605 LP             1 S1                 0.0000
     39 ****        -0.0942   1.8448  -3.1767 LP             1 S1                 0.0000
     40 ****        -3.6353   1.9132   2.0449 LP             1 S1                 0.0000
     41 ****        -3.6703  -0.6473   1.8309 LP             1 S1                 0.0000
     42 ****        -3.4194  -1.2961  -0.5340 LP             1 S1                 0.0000
@<TRIPOS>BOND
    1    1    2 2     
    2    2    3 1     
    3    2    9 am    
    4    3    4 1     
    5    3   19 1     
    6    3   20 1     
    7    4    8 1     
    8    4    5 1     
    9    5    6 2     
   10    5   21 1     
   11    6    7 1     
   12    7    8 2     
   13    9   10 1     
   14    9   22 1     
   15   10   11 1     
   16   10   23 1     
   17   10   24 1     
   18   11   18 1     
   19   11   12 1     
   20   11   25 1     
   21   12   13 1     
   22   12   26 1     
   23   12   27 1     
   24   13   14 1     
   25   13   28 1     
   26   13   29 1     
   27   14   15 1     
   28   14   18 1     
   29   14   37 1     
   30   15   17 1     
   31   15   16 1     
   32   15   30 1     
   33   16   17 1     
   34   16   31 1     
   35   16   32 1     
   36   17   33 1     
   37   17   34 1     
   38   18   35 1     
   39   18   36 1     
   40    1   38 1     
   41    1   39 1     
   42    6   40 1     
   43    7   41 1     
   44    8   42 1     
@<TRIPOS>SUBSTRUCTURE
      1 S1             1
@<TRIPOS>SET
LONE_PAIRS      STATIC     ATOMS    <user>   **** ""
5 38 39 40 41 42
DONOR_HYDROGENS      STATIC     ATOMS    <user>   **** ""
2 22 37
ATOM$BLUE        STATIC     ATOMS    COLORGROUP SYSTEM
5 38 39 40 41 42
ATOM$RED        STATIC     ATOMS    COLORGROUP SYSTEM
2 22 37
