AV-unprocessed.smi:2353|AV-procd|sdf|9382|dock7
  -GOLD-   2272013 13D 1   1.00000     0.00000
 Structure written by MMmdl.
 46 48  0  0  0  0  0  0  0  0  2 V2000
  151.4497  144.5761  159.4165 C   0  0  0  0  0  0  0  0  0  0  0  0
  152.1474  143.3182  159.8914 C   0  0  0  0  0  0  0  0  0  0  0  0
  152.7077  143.2599  161.1820 C   0  0  0  0  0  0  0  0  0  0  0  0
  153.3488  142.0860  161.6165 C   0  0  0  0  0  0  0  0  0  0  0  0
  153.4352  140.9652  160.7649 C   0  0  0  0  0  0  0  0  0  0  0  0
  154.1328  139.7079  161.2497 C   0  0  0  0  0  0  0  0  0  0  0  0
  152.8791  141.0109  159.4654 C   0  0  0  0  0  0  0  0  0  0  0  0
  153.0005  139.8808  158.6831 O   0  0  0  0  0  0  0  0  0  0  0  0
  152.5120  139.9207  157.3490 C   0  0  0  0  0  0  0  0  0  0  0  0
  152.8874  138.6050  156.6469 C   0  0  2  0  0  0  0  0  0  0  0  0
  154.2992  138.5104  156.6612 O   0  0  0  0  0  0  0  0  0  0  0  0
  152.4281  138.5884  155.1719 C   0  0  0  0  0  0  0  0  0  0  0  0
  151.0053  138.2510  155.0441 N   0  0  0  0  0  0  0  0  0  0  0  0
  150.1975  139.3308  154.7349 N   0  0  0  0  0  0  0  0  0  0  0  0
  148.9222  139.1815  154.5724 C   0  0  0  0  0  0  0  0  0  0  0  0
  148.0316  140.2799  154.2369 N   0  0  0  0  0  0  0  0  0  0  0  0
  148.2611  141.6349  154.2264 C   0  0  0  0  0  0  0  0  0  0  0  0
  147.0831  142.2194  153.8362 C   0  0  0  0  0  0  0  0  0  0  0  0
  146.1899  141.2020  153.6265 N   0  3  0  0  0  0  0  0  0  0  0  0
  146.7661  140.0198  153.8708 C   0  0  0  0  0  0  0  0  0  0  0  0
  148.3229  137.8646  154.7253 C   0  0  0  0  0  0  0  0  0  0  0  0
  149.1196  136.8168  155.0272 C   0  0  0  0  0  0  0  0  0  0  0  0
  150.5630  136.9686  155.2031 C   0  0  0  0  0  0  0  0  0  0  0  0
  151.3129  136.0287  155.4650 O   0  0  0  0  0  0  0  0  0  0  0  0
  152.2327  142.1991  159.0387 C   0  0  0  0  0  0  0  0  0  0  0  0
  151.6165  145.4067  160.1031 H   0  0  0  0  0  0  0  0  0  0  0  0
  150.3756  144.4050  159.3419 H   0  0  0  0  0  0  0  0  0  0  0  0
  151.8203  144.8689  158.4338 H   0  0  0  0  0  0  0  0  0  0  0  0
  152.6476  144.1123  161.8430 H   0  0  0  0  0  0  0  0  0  0  0  0
  153.7751  142.0499  162.6084 H   0  0  0  0  0  0  0  0  0  0  0  0
  155.0050  139.4983  160.6297 H   0  0  0  0  0  0  0  0  0  0  0  0
  153.4576  138.8536  161.1937 H   0  0  0  0  0  0  0  0  0  0  0  0
  154.4665  139.8086  162.2828 H   0  0  0  0  0  0  0  0  0  0  0  0
  151.4256  140.0135  157.3877 H   0  0  0  0  0  0  0  0  0  0  0  0
  152.9025  140.7797  156.8000 H   0  0  0  0  0  0  0  0  0  0  0  0
  152.4515  137.7663  157.1915 H   0  0  0  0  0  0  0  0  0  0  0  0
  154.5381  137.6150  156.8459 H   0  0  0  0  0  0  0  0  0  0  0  0
  152.5944  139.5678  154.7195 H   0  0  0  0  0  0  0  0  0  0  0  0
  153.0446  137.9047  154.5848 H   0  0  0  0  0  0  0  0  0  0  0  0
  149.2072  142.0858  154.4853 H   0  0  0  0  0  0  0  0  0  0  0  0
  146.8205  143.2579  153.6956 H   0  0  0  0  0  0  0  0  0  0  0  0
  146.2910  139.0579  153.7856 H   0  0  0  0  0  0  0  0  0  0  0  0
  147.2628  137.7084  154.6028 H   0  0  0  0  0  0  0  0  0  0  0  0
  148.6802  135.8366  155.1414 H   0  0  0  0  0  0  0  0  0  0  0  0
  151.7907  142.2761  158.0569 H   0  0  0  0  0  0  0  0  0  0  0  0
  145.2296  141.3246  153.3300 H   0  0  0  0  0  0  0  0  0  0  0  0
  1  2  1  0  0  0  0
  1 26  1  0  0  0  0
  1 27  1  0  0  0  0
  1 28  1  0  0  0  0
  2 25  1  0  0  0  0
  2  3  2  0  0  0  0
  3  4  1  0  0  0  0
  3 29  1  0  0  0  0
  4  5  2  0  0  0  0
  4 30  1  0  0  0  0
  5  6  1  0  0  0  0
  5  7  1  0  0  0  0
  6 31  1  0  0  0  0
  6 32  1  0  0  0  0
  6 33  1  0  0  0  0
  7  8  1  0  0  0  0
  7 25  2  0  0  0  0
  8  9  1  0  0  0  0
  9 10  1  0  0  0  0
  9 34  1  0  0  0  0
  9 35  1  0  0  0  0
 10 11  1  0  0  0  0
 10 12  1  0  0  0  0
 10 36  1  0  0  0  0
 11 37  1  0  0  0  0
 12 13  1  0  0  0  0
 12 38  1  0  0  0  0
 12 39  1  0  0  0  0
 13 23  1  0  0  0  0
 13 14  1  0  0  0  0
 14 15  2  0  0  0  0
 15 16  1  0  0  0  0
 15 21  1  0  0  0  0
 16 20  1  0  0  0  0
 16 17  1  0  0  0  0
 17 18  2  0  0  0  0
 17 40  1  0  0  0  0
 18 19  1  0  0  0  0
 18 41  1  0  0  0  0
 19 20  2  0  0  0  0
 19 46  1  0  0  0  0
 20 42  1  0  0  0  0
 21 22  2  0  0  0  0
 21 43  1  0  0  0  0
 22 23  1  0  0  0  0
 22 44  1  0  0  0  0
 23 24  2  0  0  0  0
 25 45  1  0  0  0  0
M  CHG  1  19   1
M  END
> <s_m_source_file>
AV-unprocessed.smi

> <i_m_source_file_index>
2353

> <i_lp_mmshare_version>
43012

> <i_f3d_flags>
0

> <s_epik_input>
W0NIM11jMVtjSF1bY0hdYyhbQ0gzXSljKFtjSF0xKU9bQ0gyXVtDQEhdKFtPSF0pW0NIMl1uMm5jKFtjSF1bY0hdYzI9TyktbjNbY0hdW2NIXW5bY0hdMw==

> <s_epik_cmdline>
J2VwaWtfcHl0aG9uJywgJy1waCcsICc3LjAnLCAnLXRuJywgJzgnLCAnLW1hJywgJzIwMCcsICctbWV0YWxfYmluZGluZycsICctaW1hZScsICc8aW5maWxlLm1hZT4nLCAnLW9tYWUnLCAnPG91dGZpbGUubWFlPic=

> <r_lp_tautomer_probability>
1

> <r_epik_Ionization_Penalty>
1.66053

> <r_epik_Ionization_Penalty_Charging>
2.43903e-09

> <r_epik_Ionization_Penalty_Neutral>
1.66053

> <r_epik_State_Penalty>
1.76336

> <r_epik_Charging_Adjusted_Penalty>
1.76336

> <i_epik_Tot_Q>
1

> <i_epik_Tot_abs_Q>
1

> <r_epik_Metal_State_Penalty>
1.79856

> <b_epik_Metal_Only>
0

> <s_lp_Force_Field>
OPLS_2005

> <r_lp_Energy>
37.6947

> <b_lp_Chiralities_Consistent>
1

> <s_lp_Variant>
AV-unprocessed.smi:2353-3

> <Gold.Version>
5.8.1

> <Gold.Id.Protein>
6NUR|6NUR_protein|mol2

> <Gold.PLP.Fitness>
55.8290

> <Gold.PLP.PLP>
-46.8206

> <Gold.PLP.part.hbond>
-2.0208

> <Gold.PLP.part.metal>
0.0000

> <Gold.PLP.part.buried>
-3.4226

> <Gold.PLP.part.nonpolar>
-41.3091

> <Gold.PLP.part.repulsive>
0.2112

> <Gold.PLP.ligand.clash>
0.0000

> <Gold.PLP.ligand.torsion>
0.4416

> <Gold.PLP.Chemscore.Hbond>
3.2880

> <Gold.PLP.Chemscore.CHOScore>
0.0000

> <Gold.PLP.Chemscore.Metal>
0.0000

> <Gold.Chemscore.Hbonds>
donor molecule, donor type, donor heavy atom, donor atom, acceptor molecule, acceptor atom, score
      L1  H    19    46       P1 10175  1.60
      P1  H  7997  8010       L1    11  0.35
      P1  H 10752 10765       L1    24  1.00
      L1  C    17    40       P1  8028  0.07

> <Gold.PLP.Chemscore.Internal.Correction>
0.0276

> <Gold.Rescore>
     Score         DG    S(hbond)    S(metal)    S(lipo)     H(rot)  DE(clash)    DE(int)     intcor
     19.71     -20.23       2.08        0.00     124.78       2.65       0.13       0.39       ----

> <Gold.Chemscore.Fitness>
19.7088

> <Gold.Chemscore.DG>
-20.2278

> <Gold.Chemscore.ZeroCoef>
-5.4800

> <Gold.Chemscore.Hbond>
2.0784

> <Gold.Chemscore.Metal>
0.0000

> <Gold.Chemscore.Lipo>
124.7815

> <Gold.Chemscore.Internal_Hbond>
0.0000

> <Gold.Chemscore.DEClash>
0.1334

> <Gold.Chemscore.DEInternal>
0.3856

> <Gold.Chemscore.Rot>
2.6537

> <Gold.Chemscore.Internal.Correction>
   9.000000E+99

> <Gold.Chemscore.Hbonds>
donor molecule, donor type, donor heavy atom, donor atom, acceptor molecule, acceptor atom, score
      L1  H    19    46       P1 10175  0.13
      P1  H  7989  7998       L1    14  0.03
      P1  H  7997  8010       L1    11  0.08
      P1  H 10752 10765       L1    24  0.98

> <Gold.Chemscore.Hbond.Weighted>
-6.9419

> <Gold.Chemscore.Metal.Weighted>
-0.0000

> <Gold.Chemscore.Lipo.Weighted>
-14.5994

> <Gold.Chemscore.Internal_Hbond.Weighted>
0.0000

> <Gold.Chemscore.DEClash.Weighted>
0.1334

> <Gold.Chemscore.DEInternal.Weighted>
0.3856

> <Gold.Chemscore.Rot.Weighted>
6.7935

> <Gold.Chemscore.Internal.Correction.Weighted>
   9.000000E+99

> <Gold.Protein.RotatedTorsions>
[ 6907 6896 6895 6894 ] final  -76.82 input  -60.11 | X-H torsion
[ 7974 7965 7964 7962 ] final  -70.00 input  175.53 | X-H torsion
[ 8008 7997 7996 7995 ] final   31.19 input   59.86 | X-H torsion
[ 10167 10162 10161 10158 ] final   80.88 input  -65.29 | X-H torsion
[ 10718 10713 10712 10709 ] final  132.42 input   66.30 | X-H torsion
[ 10763 10752 10751 10750 ] final -153.21 input  -60.55 | X-H torsion
[ 11005 11000 10999 10996 ] final   43.67 input  -57.11 | X-H torsion

> <Gold.Protein.ActiveResidues>
 VAL166  LYS551  ARG553  GLY616  TRP617  ASP618  TYR619  PRO620  LYS621  CYS622 
 ASP623  PHE694  ASN695  SER759  ASP760  ASP761  ALA762  ILE779  LEU786  VAL792 
 PHE793  MET794  SER795  GLU796  ALA797  LYS798  CYS799  TRP800  GLU811  SER814 

> <Gold.Protein.RotatedAtoms>
  150.7016  134.4514  159.5337 H   0  0  0  0  0  0  0  0  0  0  0  0  # atno 6907 bound_to 6896
  152.2206  134.8414  160.0495 H   0  0  0  0  0  0  0  0  0  0  0  0  # atno 6908 bound_to 6896
  151.9265  133.3564  159.3952 H   0  0  0  0  0  0  0  0  0  0  0  0  # atno 6909 bound_to 6896
  145.6965  140.9133  143.0753 H   0  0  0  0  0  0  0  0  0  0  0  0  # atno 7974 bound_to 7965
  155.1024  140.3231  155.4543 H   0  0  0  0  0  0  0  0  0  0  0  0  # atno 8008 bound_to 7997
  156.2713  140.2058  156.6097 H   0  0  0  0  0  0  0  0  0  0  0  0  # atno 8009 bound_to 7997
  154.6819  140.0525  157.0262 H   0  0  0  0  0  0  0  0  0  0  0  0  # atno 8010 bound_to 7997
  139.9451  144.6064  150.8214 H   0  0  0  0  0  0  0  0  0  0  0  0  # atno 10167 bound_to 10162
  157.4873  131.1089  150.9604 H   0  0  0  0  0  0  0  0  0  0  0  0  # atno 10718 bound_to 10713
  154.7943  135.3218  154.7705 H   0  0  0  0  0  0  0  0  0  0  0  0  # atno 10763 bound_to 10752
  153.8386  135.6873  153.4810 H   0  0  0  0  0  0  0  0  0  0  0  0  # atno 10764 bound_to 10752
  153.1627  135.4654  154.9735 H   0  0  0  0  0  0  0  0  0  0  0  0  # atno 10765 bound_to 10752
  140.1623  134.4325  155.8309 H   0  0  0  0  0  0  0  0  0  0  0  0  # atno 11005 bound_to 11000
  144.6981  139.8891  143.7452 LP  0  0  0  0  0  0  0  0  0  0  0  0  # atno 17320 bound_to 7965
  146.0835  139.3823  143.0449 LP  0  0  0  0  0  0  0  0  0  0  0  0  # atno 17321 bound_to 7965
  140.7599  143.3140  151.2777 LP  0  0  0  0  0  0  0  0  0  0  0  0  # atno 17342 bound_to 10162
  139.6673  144.0082  152.2731 LP  0  0  0  0  0  0  0  0  0  0  0  0  # atno 17343 bound_to 10162
  157.0317  130.5714  149.5344 LP  0  0  0  0  0  0  0  0  0  0  0  0  # atno 17370 bound_to 10713
  156.0153  130.5247  150.8117 LP  0  0  0  0  0  0  0  0  0  0  0  0  # atno 17371 bound_to 10713
  141.2210  133.6919  156.7617 LP  0  0  0  0  0  0  0  0  0  0  0  0  # atno 17394 bound_to 11000
  140.2475  134.8566  157.3634 LP  0  0  0  0  0  0  0  0  0  0  0  0  # atno 17395 bound_to 11000

$$$$
