AV-unprocessed.smi:90|AV-procd|sdf|832|dock6
  -GOLD-   2262017253D 1   1.00000     0.00000
 Structure written by MMmdl.
 64 67  0  0  0  0  0  0  0  0  2 V2000
  153.4419  137.6745  157.4403 C   0  0  0  0  0  0  0  0  0  0  0  0
  152.3166  137.9807  158.3198 N   0  0  0  0  0  0  0  0  0  0  0  0
  152.4690  139.0417  159.3107 C   0  0  0  0  0  0  0  0  0  0  0  0
  152.7070  140.4178  158.6575 C   0  0  0  0  0  0  0  0  0  0  0  0
  152.0926  141.6111  159.4357 C   0  0  1  0  0  0  0  0  0  0  0  0
  153.0404  142.0584  160.5778 C   0  0  0  0  0  0  0  0  0  0  0  0
  152.4879  143.2528  161.3622 C   0  0  0  0  0  0  0  0  0  0  0  0
  152.1857  144.4035  160.4027 C   0  0  0  0  0  0  0  0  0  0  0  0
  151.2293  143.9352  159.2992 C   0  0  0  0  0  0  0  0  0  0  0  0
  151.7832  142.7781  158.5456 N   0  3  2  0  0  0  0  0  0  0  0  0
  150.9154  142.4550  157.3860 C   0  0  0  0  0  0  0  0  0  0  0  0
  151.1860  137.2202  158.2476 C   0  0  0  0  0  0  0  0  0  0  0  0
  150.2524  137.3783  159.2244 N   0  0  0  0  0  0  0  0  0  0  0  0
  149.1313  136.6538  159.2273 C   0  0  0  0  0  0  0  0  0  0  0  0
  148.7383  135.7267  158.3552 N   0  0  0  0  0  0  0  0  0  0  0  0
  149.6537  135.5653  157.3589 C   0  0  0  0  0  0  0  0  0  0  0  0
  150.8935  136.2597  157.2284 C   0  0  0  0  0  0  0  0  0  0  0  0
  151.5453  135.8170  156.0812 N   0  0  0  0  0  0  0  0  0  0  0  0
  150.7523  134.9136  155.5777 C   0  0  0  0  0  0  0  0  0  0  0  0
  149.5831  134.7088  156.2723 N   0  0  0  0  0  0  0  0  0  0  0  0
  148.5285  133.7616  155.9348 C   0  0  0  0  0  0  0  0  0  0  0  0
  148.9063  132.7152  154.8431 C   0  0  0  0  0  0  0  0  0  0  0  0
  149.1308  133.4137  153.4716 C   0  0  0  0  0  0  0  0  0  0  0  0
  147.9484  134.0060  152.9721 O   0  0  0  0  0  0  0  0  0  0  0  0
  150.1958  131.9581  155.2546 C   0  0  0  0  0  0  0  0  0  0  0  0
  150.4562  130.6977  154.4080 C   0  0  0  0  0  0  0  0  0  0  0  0
  149.3297  129.8327  154.4557 O   0  0  0  0  0  0  0  0  0  0  0  0
  148.1549  130.4303  153.9232 C   0  0  0  0  0  0  0  0  0  0  0  0
  147.7717  131.6622  154.7621 C   0  0  0  0  0  0  0  0  0  0  0  0
  153.7118  136.6203  157.5122 H   0  0  0  0  0  0  0  0  0  0  0  0
  154.3208  138.2619  157.7070 H   0  0  0  0  0  0  0  0  0  0  0  0
  153.1924  137.8999  156.4031 H   0  0  0  0  0  0  0  0  0  0  0  0
  151.5554  139.0840  159.9048 H   0  0  0  0  0  0  0  0  0  0  0  0
  153.2506  138.7738  160.0178 H   0  0  0  0  0  0  0  0  0  0  0  0
  153.7748  140.5870  158.5157 H   0  0  0  0  0  0  0  0  0  0  0  0
  152.2781  140.3541  157.6595 H   0  0  0  0  0  0  0  0  0  0  0  0
  151.1514  141.2792  159.8775 H   0  0  0  0  0  0  0  0  0  0  0  0
  153.2140  141.2459  161.2818 H   0  0  0  0  0  0  0  0  0  0  0  0
  154.0159  142.3191  160.1643 H   0  0  0  0  0  0  0  0  0  0  0  0
  151.5803  142.9613  161.8923 H   0  0  0  0  0  0  0  0  0  0  0  0
  153.2051  143.5714  162.1190 H   0  0  0  0  0  0  0  0  0  0  0  0
  151.7471  145.2395  160.9487 H   0  0  0  0  0  0  0  0  0  0  0  0
  153.1122  144.7716  159.9595 H   0  0  0  0  0  0  0  0  0  0  0  0
  150.2638  143.6626  159.7288 H   0  0  0  0  0  0  0  0  0  0  0  0
  151.0475  144.7667  158.6172 H   0  0  0  0  0  0  0  0  0  0  0  0
  150.0073  141.9426  157.7065 H   0  0  0  0  0  0  0  0  0  0  0  0
  151.4324  141.8330  156.6568 H   0  0  0  0  0  0  0  0  0  0  0  0
  150.6200  143.3603  156.8545 H   0  0  0  0  0  0  0  0  0  0  0  0
  148.4537  136.8427  160.0470 H   0  0  0  0  0  0  0  0  0  0  0  0
  150.9972  134.3729  154.6749 H   0  0  0  0  0  0  0  0  0  0  0  0
  148.2468  133.2510  156.8567 H   0  0  0  0  0  0  0  0  0  0  0  0
  147.6446  134.3258  155.6351 H   0  0  0  0  0  0  0  0  0  0  0  0
  149.8975  134.1845  153.5501 H   0  0  0  0  0  0  0  0  0  0  0  0
  149.4868  132.7150  152.7164 H   0  0  0  0  0  0  0  0  0  0  0  0
  148.1164  134.9216  152.8090 H   0  0  0  0  0  0  0  0  0  0  0  0
  151.0644  132.6144  155.1936 H   0  0  0  0  0  0  0  0  0  0  0  0
  150.1172  131.6525  156.2988 H   0  0  0  0  0  0  0  0  0  0  0  0
  150.6943  130.9485  153.3742 H   0  0  0  0  0  0  0  0  0  0  0  0
  151.3202  130.1619  154.8016 H   0  0  0  0  0  0  0  0  0  0  0  0
  148.3009  130.6876  152.8737 H   0  0  0  0  0  0  0  0  0  0  0  0
  147.3494  129.6964  153.9542 H   0  0  0  0  0  0  0  0  0  0  0  0
  147.5259  131.3166  155.7672 H   0  0  0  0  0  0  0  0  0  0  0  0
  146.8555  132.1060  154.3717 H   0  0  0  0  0  0  0  0  0  0  0  0
  152.6643  143.0895  158.1624 H   0  0  0  0  0  0  0  0  0  0  0  0
  1  2  1  0  0  0  0
  1 30  1  0  0  0  0
  1 31  1  0  0  0  0
  1 32  1  0  0  0  0
  2  3  1  0  0  0  0
  2 12  1  0  0  0  0
  3  4  1  0  0  0  0
  3 33  1  0  0  0  0
  3 34  1  0  0  0  0
  4  5  1  0  0  0  0
  4 35  1  0  0  0  0
  4 36  1  0  0  0  0
  5 10  1  0  0  0  0
  5  6  1  0  0  0  0
  5 37  1  0  0  0  0
  6  7  1  0  0  0  0
  6 38  1  0  0  0  0
  6 39  1  0  0  0  0
  7  8  1  0  0  0  0
  7 40  1  0  0  0  0
  7 41  1  0  0  0  0
  8  9  1  0  0  0  0
  8 42  1  0  0  0  0
  8 43  1  0  0  0  0
  9 10  1  0  0  0  0
  9 44  1  0  0  0  0
  9 45  1  0  0  0  0
 10 11  1  0  0  0  0
 10 64  1  0  0  0  0
 11 46  1  0  0  0  0
 11 47  1  0  0  0  0
 11 48  1  0  0  0  0
 12 17  1  0  0  0  0
 12 13  2  0  0  0  0
 13 14  1  0  0  0  0
 14 15  2  0  0  0  0
 14 49  1  0  0  0  0
 15 16  1  0  0  0  0
 16 20  1  0  0  0  0
 16 17  2  0  0  0  0
 17 18  1  0  0  0  0
 18 19  2  0  0  0  0
 19 20  1  0  0  0  0
 19 50  1  0  0  0  0
 20 21  1  0  0  0  0
 21 22  1  0  0  0  0
 21 51  1  0  0  0  0
 21 52  1  0  0  0  0
 22 29  1  0  0  0  0
 22 23  1  0  0  0  0
 22 25  1  0  0  0  0
 23 24  1  0  0  0  0
 23 53  1  0  0  0  0
 23 54  1  0  0  0  0
 24 55  1  0  0  0  0
 25 26  1  0  0  0  0
 25 56  1  0  0  0  0
 25 57  1  0  0  0  0
 26 27  1  0  0  0  0
 26 58  1  0  0  0  0
 26 59  1  0  0  0  0
 27 28  1  0  0  0  0
 28 29  1  0  0  0  0
 28 60  1  0  0  0  0
 28 61  1  0  0  0  0
 29 62  1  0  0  0  0
 29 63  1  0  0  0  0
M  CHG  1  10   1
M  END
> <s_m_source_file>
AV-unprocessed.smi

> <i_m_source_file_index>
90

> <i_lp_mmshare_version>
43012

> <i_f3d_flags>
0

> <s_epik_input>
W0NIM11OMVtDSDJdW0NIMl1bQ0gyXVtDSDJdW0NASF0xW0NIMl1bQ0gyXU4oW0NIM10pYyhuW2NIXW4yKWMoYzIzKW5bY0hdbjNbQ0gyXUM0KFtDSDJdW09IXSlbQ0gyXVtDSDJdT1tDSDJdW0NIMl00

> <s_epik_cmdline>
J2VwaWtfcHl0aG9uJywgJy1waCcsICc3LjAnLCAnLXRuJywgJzgnLCAnLW1hJywgJzIwMCcsICctbWV0YWxfYmluZGluZycsICctaW1hZScsICc8aW5maWxlLm1hZT4nLCAnLW9tYWUnLCAnPG91dGZpbGUubWFlPic=

> <r_lp_tautomer_probability>
1

> <r_epik_Ionization_Penalty>
0.00234895

> <r_epik_Ionization_Penalty_Charging>
0.00106647

> <r_epik_Ionization_Penalty_Neutral>
0.00128248

> <r_epik_State_Penalty>
-0

> <r_epik_Charging_Adjusted_Penalty>
0.00106647

> <i_epik_Tot_Q>
1

> <i_epik_Tot_abs_Q>
1

> <r_epik_Metal_State_Penalty>
-0

> <b_epik_Metal_Only>
0

> <s_lp_Force_Field>
OPLS_2005

> <r_lp_Energy>
42.6574

> <b_lp_Chiralities_Consistent>
1

> <s_lp_Variant>
AV-unprocessed.smi:90-4

> <Gold.Version>
5.8.1

> <Gold.Id.Protein>
6NUR|6NUR_protein|mol2

> <Gold.PLP.Fitness>
51.1999

> <Gold.PLP.PLP>
-46.3973

> <Gold.PLP.part.hbond>
-2.0000

> <Gold.PLP.part.metal>
0.0000

> <Gold.PLP.part.buried>
-6.7039

> <Gold.PLP.part.nonpolar>
-36.8885

> <Gold.PLP.part.repulsive>
0.1114

> <Gold.PLP.ligand.clash>
0.0000

> <Gold.PLP.ligand.torsion>
0.7398

> <Gold.PLP.Chemscore.Hbond>
2.0000

> <Gold.PLP.Chemscore.CHOScore>
0.0000

> <Gold.PLP.Chemscore.Metal>
0.0000

> <Gold.Chemscore.Hbonds>
donor molecule, donor type, donor heavy atom, donor atom, acceptor molecule, acceptor atom, score
      L1  H    24    55       P1  7948  0.98
      P1  H 10752 10764       L1    18  0.95

> <Gold.PLP.Chemscore.Internal.Correction>
0.2822

> <Gold.Rescore>
     Score         DG    S(hbond)    S(metal)    S(lipo)     H(rot)  DE(clash)    DE(int)     intcor
     14.17     -17.24       1.55        0.00     115.99       2.73       0.04       3.03       ----

> <Gold.Chemscore.Fitness>
14.1738

> <Gold.Chemscore.DG>
-17.2427

> <Gold.Chemscore.ZeroCoef>
-5.4800

> <Gold.Chemscore.Hbond>
1.5547

> <Gold.Chemscore.Metal>
0.0000

> <Gold.Chemscore.Lipo>
115.9922

> <Gold.Chemscore.Internal_Hbond>
0.0000

> <Gold.Chemscore.DEClash>
0.0433

> <Gold.Chemscore.DEInternal>
3.0256

> <Gold.Chemscore.Rot>
2.7347

> <Gold.Chemscore.Internal.Correction>
   9.000000E+99

> <Gold.Chemscore.Hbonds>
donor molecule, donor type, donor heavy atom, donor atom, acceptor molecule, acceptor atom, score
      L1  H    24    55       P1  7948  0.79
      P1  H 10752 10764       L1    18  0.21

> <Gold.Chemscore.Hbond.Weighted>
-5.1926

> <Gold.Chemscore.Metal.Weighted>
-0.0000

> <Gold.Chemscore.Lipo.Weighted>
-13.5711

> <Gold.Chemscore.Internal_Hbond.Weighted>
0.0000

> <Gold.Chemscore.DEClash.Weighted>
0.0433

> <Gold.Chemscore.DEInternal.Weighted>
3.0256

> <Gold.Chemscore.Rot.Weighted>
7.0009

> <Gold.Chemscore.Internal.Correction.Weighted>
   9.000000E+99

> <Gold.Protein.RotatedTorsions>
[ 6907 6896 6895 6894 ] final   70.55 input  -60.11 | X-H torsion
[ 7974 7965 7964 7962 ] final  -46.04 input  175.53 | X-H torsion
[ 8008 7997 7996 7995 ] final  -98.12 input   59.86 | X-H torsion
[ 10167 10162 10161 10158 ] final -179.52 input  -65.29 | X-H torsion
[ 10718 10713 10712 10709 ] final   52.86 input   66.30 | X-H torsion
[ 10763 10752 10751 10750 ] final  -34.07 input  -60.55 | X-H torsion
[ 11005 11000 10999 10996 ] final   34.92 input  -57.11 | X-H torsion

> <Gold.Protein.ActiveResidues>
 VAL166  LYS551  ARG553  GLY616  TRP617  ASP618  TYR619  PRO620  LYS621  CYS622 
 ASP623  PHE694  ASN695  SER759  ASP760  ASP761  ALA762  ILE779  LEU786  VAL792 
 PHE793  MET794  SER795  GLU796  ALA797  LYS798  CYS799  TRP800  GLU811  SER814 

> <Gold.Protein.RotatedAtoms>
  152.4756  134.4851  159.9677 H   0  0  0  0  0  0  0  0  0  0  0  0  # atno 6907 bound_to 6896
  151.4868  133.3528  159.2855 H   0  0  0  0  0  0  0  0  0  0  0  0  # atno 6908 bound_to 6896
  150.8793  134.8208  159.7274 H   0  0  0  0  0  0  0  0  0  0  0  0  # atno 6909 bound_to 6896
  145.9759  140.7334  142.9387 H   0  0  0  0  0  0  0  0  0  0  0  0  # atno 7974 bound_to 7965
  154.7969  140.0457  157.1243 H   0  0  0  0  0  0  0  0  0  0  0  0  # atno 8008 bound_to 7997
  154.9525  140.3067  155.5048 H   0  0  0  0  0  0  0  0  0  0  0  0  # atno 8009 bound_to 7997
  156.2957  140.2285  156.4604 H   0  0  0  0  0  0  0  0  0  0  0  0  # atno 8010 bound_to 7997
  139.5382  144.2436  152.0840 H   0  0  0  0  0  0  0  0  0  0  0  0  # atno 10167 bound_to 10162
  157.5114  130.8503  149.8439 H   0  0  0  0  0  0  0  0  0  0  0  0  # atno 10718 bound_to 10713
  153.8407  135.6858  153.4803 H   0  0  0  0  0  0  0  0  0  0  0  0  # atno 10763 bound_to 10752
  153.1455  135.4639  154.9558 H   0  0  0  0  0  0  0  0  0  0  0  0  # atno 10764 bound_to 10752
  154.7846  135.3280  154.7861 H   0  0  0  0  0  0  0  0  0  0  0  0  # atno 10765 bound_to 10752
  140.2479  134.3337  155.7901 H   0  0  0  0  0  0  0  0  0  0  0  0  # atno 11005 bound_to 11000
  144.6848  140.2827  143.7290 LP  0  0  0  0  0  0  0  0  0  0  0  0  # atno 17320 bound_to 7965
  145.7839  139.1901  143.2142 LP  0  0  0  0  0  0  0  0  0  0  0  0  # atno 17321 bound_to 7965
  140.1911  144.4751  150.6479 LP  0  0  0  0  0  0  0  0  0  0  0  0  # atno 17342 bound_to 10162
  140.6600  143.2249  151.5879 LP  0  0  0  0  0  0  0  0  0  0  0  0  # atno 17343 bound_to 10162
  156.0291  130.3770  150.1738 LP  0  0  0  0  0  0  0  0  0  0  0  0  # atno 17370 bound_to 10713
  156.9927  130.9898  151.3410 LP  0  0  0  0  0  0  0  0  0  0  0  0  # atno 17371 bound_to 10713
  141.2204  133.7336  156.8990 LP  0  0  0  0  0  0  0  0  0  0  0  0  # atno 17394 bound_to 11000
  140.1587  134.9180  157.2687 LP  0  0  0  0  0  0  0  0  0  0  0  0  # atno 17395 bound_to 11000

$$$$
