#       Name:                AV-unprocessed.smi:1929
#       Creating user name   scv26
#       Creation time:       Fri Mar 27 09:54:22 2020


#       File generated by GOLD software.
#

@<TRIPOS>MOLECULE
AV-unprocessed.smi:1929
    48    49     1
SMALL
NO_CHARGES


@<TRIPOS>ATOM
      1 ****        -4.9698   3.6795   2.5451 C.3            1 S1                 0.0000
      2 ****        -4.3431   2.4137   2.1942 N.am           1 S1                 0.0000
      3 ****        -3.1124   2.0491   2.5809 C.2            1 S1                 0.0000
      4 ****        -2.3896   2.7541   3.2860 O.2            1 S1                 0.0000
      5 ****        -2.6334   0.6711   2.1116 C.3            1 S1                 0.0000
      6 ****        -1.1533   0.5411   2.1058 N.4            1 S1                 1.0000
      7 ****        -0.5112   1.2364   0.9585 C.3            1 S1                 0.0000
      8 ****         1.0220   1.1991   1.0770 C.3            1 S1                 0.0000
      9 ****         1.5564  -0.2420   1.2027 C.3            1 S1                 0.0000
     10 ****         1.4223  -0.9887  -0.0485 N.am           1 S1                 0.0000
     11 ****         2.2142  -0.8499  -1.1225 C.2            1 S1                 0.0000
     12 ****         3.1398  -0.0412  -1.1772 O.2            1 S1                 0.0000
     13 ****         1.8468  -1.6879  -2.1081 N.am           1 S1                 0.0000
     14 ****         2.4258  -1.8689  -3.3948 C.ar           1 S1                 0.0000
     15 ****         1.6709  -2.5742  -4.3551 C.ar           1 S1                 0.0000
     16 ****         2.2221  -2.7826  -5.6352 C.ar           1 S1                 0.0000
     17 ****         3.4472  -2.3460  -5.9951 N.ar           1 S1                 0.0000
     18 ****         4.1737  -1.6811  -5.0720 C.ar           1 S1                 0.0000
     19 ****         3.7170  -1.4198  -3.7645 C.ar           1 S1                 0.0000
     20 ****         0.8233  -0.9674   2.3448 C.3            1 S1                 0.0000
     21 ****        -0.7077  -0.8722   2.2060 C.3            1 S1                 0.0000
     22 ****        -5.9695   3.7317   2.1135 H              1 S1                 0.0000
     23 ****        -4.3897   4.5204   2.1626 H              1 S1                 0.0000
     24 ****        -5.0607   3.7825   3.6271 H              1 S1                 0.0000
     25 ****        -4.8801   1.7777   1.6222 H              1 S1                 0.0000
     26 ****        -3.0635  -0.0583   2.7995 H              1 S1                 0.0000
     27 ****        -3.0324   0.4415   1.1220 H              1 S1                 0.0000
     28 ****        -0.8294   0.7733   0.0232 H              1 S1                 0.0000
     29 ****        -0.8376   2.2760   0.9190 H              1 S1                 0.0000
     30 ****         1.4751   1.7074   0.2253 H              1 S1                 0.0000
     31 ****         1.3218   1.7683   1.9581 H              1 S1                 0.0000
     32 ****         2.6179  -0.2020   1.4543 H              1 S1                 0.0000
     33 ****         0.6870  -1.6790  -0.0913 H              1 S1                 0.0000
     34 ****         1.0248  -2.2455  -1.9293 H              1 S1                 0.0000
     35 ****         0.6846  -2.9485  -4.1222 H              1 S1                 0.0000
     36 ****         1.6635  -3.3160  -6.3900 H              1 S1                 0.0000
     37 ****         5.1538  -1.3510  -5.3829 H              1 S1                 0.0000
     38 ****         4.3677  -0.8963  -3.0822 H              1 S1                 0.0000
     39 ****         1.1323  -2.0126   2.3901 H              1 S1                 0.0000
     40 ****         1.1202  -0.5241   3.2965 H              1 S1                 0.0000
     41 ****        -1.1722  -1.3437   3.0730 H              1 S1                 0.0000
     42 ****        -1.0464  -1.4244   1.3278 H              1 S1                 0.0000
     43 ****        -0.8302   1.0006   2.9457 H              1 S1                 0.0000
     44 ****        -2.7135   3.6470   3.5986 LP             1 S1                 0.0000
     45 ****        -1.4786   2.4337   3.5459 LP             1 S1                 0.0000
     46 ****         3.3315   0.5530  -0.3961 LP             1 S1                 0.0000
     47 ****         3.7005   0.0219  -2.0029 LP             1 S1                 0.0000
     48 ****         3.8048  -2.5095  -6.9146 LP             1 S1                 0.0000
@<TRIPOS>BOND
    1    1    2 1     
    2    1   22 1     
    3    1   23 1     
    4    1   24 1     
    5    2    3 am    
    6    2   25 1     
    7    3    4 2     
    8    3    5 1     
    9    5    6 1     
   10    5   26 1     
   11    5   27 1     
   12    6   21 1     
   13    6    7 1     
   14    6   43 1     
   15    7    8 1     
   16    7   28 1     
   17    7   29 1     
   18    8    9 1     
   19    8   30 1     
   20    8   31 1     
   21    9   10 1     
   22    9   20 1     
   23    9   32 1     
   24   10   11 am    
   25   10   33 1     
   26   11   12 2     
   27   11   13 am    
   28   13   14 1     
   29   13   34 1     
   30   14   19 ar    
   31   14   15 ar    
   32   15   16 ar    
   33   15   35 1     
   34   16   17 ar    
   35   16   36 1     
   36   17   18 ar    
   37   18   19 ar    
   38   18   37 1     
   39   19   38 1     
   40   20   21 1     
   41   20   39 1     
   42   20   40 1     
   43   21   41 1     
   44   21   42 1     
   45    4   44 1     
   46    4   45 1     
   47   12   46 1     
   48   12   47 1     
   49   17   48 1     
@<TRIPOS>SUBSTRUCTURE
      1 S1             1
@<TRIPOS>SET
LONE_PAIRS      STATIC     ATOMS    <user>   **** ""
5 44 45 46 47 48
DONOR_HYDROGENS      STATIC     ATOMS    <user>   **** ""
4 25 43 33 34
ATOM$BLUE        STATIC     ATOMS    COLORGROUP SYSTEM
5 44 45 46 47 48
ATOM$RED        STATIC     ATOMS    COLORGROUP SYSTEM
4 25 43 33 34
