AV-unprocessed.smi:3172|AV-procd|sdf|12114|dock3
  -GOLD-   2272017553D 1   1.00000     0.00000
 Structure written by MMmdl.
 44 45  0  0  0  0  0  0  0  0  3 V2000
  146.7177  139.3689  152.1163 C   0  0  0  0  0  0  0  0  0  0  0  0
  147.7863  139.7233  153.0956 C   0  0  0  0  0  0  0  0  0  0  0  0
  148.7915  138.8537  153.4265 N   0  3  0  0  0  0  0  0  0  0  0  0
  149.6166  139.4075  154.3161 C   0  0  0  0  0  0  0  0  0  0  0  0
  149.1449  140.6337  154.5711 N   0  0  0  0  0  0  0  0  0  0  0  0
  149.8170  141.5412  155.5143 C   0  0  0  0  0  0  0  0  0  0  0  0
  149.3524  141.3697  156.9759 C   0  0  1  0  0  0  0  0  0  0  0  0
  150.2987  140.4854  157.8062 C   0  0  0  0  0  0  0  0  0  0  0  0
  149.2182  142.7009  157.6114 N   0  3  0  0  0  0  0  0  0  0  0  0
  150.3759  143.1601  158.4131 C   0  0  0  0  0  0  0  0  0  0  0  0
  149.9179  144.2343  159.4181 C   0  0  0  0  0  0  0  0  0  0  0  0
  151.0916  144.7545  160.2634 C   0  0  0  0  0  0  0  0  0  0  0  0
  152.2229  145.2924  159.3738 C   0  0  0  0  0  0  0  0  0  0  0  0
  152.6860  144.2307  158.3648 C   0  0  0  0  0  0  0  0  0  0  0  0
  151.5107  143.7100  157.5216 C   0  0  0  0  0  0  0  0  0  0  0  0
  148.0096  140.8681  153.8261 C   0  0  0  0  0  0  0  0  0  0  0  0
  147.2437  142.1508  153.8752 C   0  0  0  0  0  0  0  0  0  0  0  0
  146.5035  140.2178  151.4668 H   0  0  0  0  0  0  0  0  0  0  0  0
  145.8037  139.0935  152.6423 H   0  0  0  0  0  0  0  0  0  0  0  0
  147.0277  138.5293  151.4932 H   0  0  0  0  0  0  0  0  0  0  0  0
  150.4900  138.9496  154.7457 H   0  0  0  0  0  0  0  0  0  0  0  0
  150.8930  141.3742  155.4372 H   0  0  0  0  0  0  0  0  0  0  0  0
  149.6397  142.5622  155.1745 H   0  0  0  0  0  0  0  0  0  0  0  0
  148.3756  140.8861  156.9581 H   0  0  0  0  0  0  0  0  0  0  0  0
  150.3448  139.4696  157.4133 H   0  0  0  0  0  0  0  0  0  0  0  0
  149.9667  140.4125  158.8421 H   0  0  0  0  0  0  0  0  0  0  0  0
  151.3123  140.8874  157.8122 H   0  0  0  0  0  0  0  0  0  0  0  0
  149.0170  143.3895  156.9001 H   0  0  0  0  0  0  0  0  0  0  0  0
  150.7500  142.3073  158.9824 H   0  0  0  0  0  0  0  0  0  0  0  0
  149.4588  145.0688  158.8854 H   0  0  0  0  0  0  0  0  0  0  0  0
  149.1486  143.8278  160.0757 H   0  0  0  0  0  0  0  0  0  0  0  0
  150.7455  145.5387  160.9374 H   0  0  0  0  0  0  0  0  0  0  0  0
  151.4727  143.9507  160.8945 H   0  0  0  0  0  0  0  0  0  0  0  0
  151.8790  146.1789  158.8393 H   0  0  0  0  0  0  0  0  0  0  0  0
  153.0632  145.6108  159.9916 H   0  0  0  0  0  0  0  0  0  0  0  0
  153.4547  144.6484  157.7139 H   0  0  0  0  0  0  0  0  0  0  0  0
  153.1505  143.3994  158.8966 H   0  0  0  0  0  0  0  0  0  0  0  0
  151.8770  142.9381  156.8446 H   0  0  0  0  0  0  0  0  0  0  0  0
  151.1302  144.5170  156.8937 H   0  0  0  0  0  0  0  0  0  0  0  0
  146.4983  142.1788  153.0802 H   0  0  0  0  0  0  0  0  0  0  0  0
  147.9111  143.0029  153.7455 H   0  0  0  0  0  0  0  0  0  0  0  0
  146.7264  142.2481  154.8292 H   0  0  0  0  0  0  0  0  0  0  0  0
  148.4264  142.6553  158.2370 H   0  0  0  0  0  0  0  0  0  0  0  0
  148.8982  137.9210  153.0472 H   0  0  0  0  0  0  0  0  0  0  0  0
  1  2  1  0  0  0  0
  1 18  1  0  0  0  0
  1 19  1  0  0  0  0
  1 20  1  0  0  0  0
  2 16  2  0  0  0  0
  2  3  1  0  0  0  0
  3  4  2  0  0  0  0
  3 44  1  0  0  0  0
  4  5  1  0  0  0  0
  4 21  1  0  0  0  0
  5  6  1  0  0  0  0
  5 16  1  0  0  0  0
  6  7  1  0  0  0  0
  6 22  1  0  0  0  0
  6 23  1  0  0  0  0
  7  8  1  0  0  0  0
  7  9  1  0  0  0  0
  7 24  1  0  0  0  0
  8 25  1  0  0  0  0
  8 26  1  0  0  0  0
  8 27  1  0  0  0  0
  9 10  1  0  0  0  0
  9 28  1  0  0  0  0
  9 43  1  0  0  0  0
 10 15  1  0  0  0  0
 10 11  1  0  0  0  0
 10 29  1  0  0  0  0
 11 12  1  0  0  0  0
 11 30  1  0  0  0  0
 11 31  1  0  0  0  0
 12 13  1  0  0  0  0
 12 32  1  0  0  0  0
 12 33  1  0  0  0  0
 13 14  1  0  0  0  0
 13 34  1  0  0  0  0
 13 35  1  0  0  0  0
 14 15  1  0  0  0  0
 14 36  1  0  0  0  0
 14 37  1  0  0  0  0
 15 38  1  0  0  0  0
 15 39  1  0  0  0  0
 16 17  1  0  0  0  0
 17 40  1  0  0  0  0
 17 41  1  0  0  0  0
 17 42  1  0  0  0  0
M  CHG  1   3   1
M  CHG  1   9   1
M  END
> <s_m_source_file>
AV-unprocessed.smi

> <i_m_source_file_index>
3172

> <i_lp_mmshare_version>
43012

> <i_f3d_flags>
0

> <s_epik_input>
W0NIM11jMW5bY0hdbihjMVtDSDNdKVtDSDJdW0NASF0oW0NIM10pW05IXVtDSF0yW0NIMl1bQ0gyXVtDSDJdW0NIMl1bQ0gyXTI=

> <s_epik_cmdline>
J2VwaWtfcHl0aG9uJywgJy1waCcsICc3LjAnLCAnLXRuJywgJzgnLCAnLW1hJywgJzIwMCcsICctbWV0YWxfYmluZGluZycsICctaW1hZScsICc8aW5maWxlLm1hZT4nLCAnLW9tYWUnLCAnPG91dGZpbGUubWFlPic=

> <r_lp_tautomer_probability>
1

> <r_epik_Ionization_Penalty>
0.509043

> <r_epik_Ionization_Penalty_Charging>
0.00159961

> <r_epik_Ionization_Penalty_Neutral>
0.507444

> <r_epik_State_Penalty>
0.272352

> <r_epik_Charging_Adjusted_Penalty>
0.273952

> <i_epik_Tot_Q>
2

> <i_epik_Tot_abs_Q>
2

> <r_epik_Metal_State_Penalty>
3.76994

> <b_epik_Metal_Only>
0

> <s_lp_Force_Field>
OPLS_2005

> <r_lp_Energy>
25.4391

> <b_lp_Chiralities_Consistent>
1

> <s_lp_Variant>
AV-unprocessed.smi:3172-2

> <Gold.Version>
5.8.1

> <Gold.Id.Protein>
6NUR|6NUR_protein|mol2

> <Gold.PLP.Fitness>
51.8756

> <Gold.PLP.PLP>
-43.1949

> <Gold.PLP.part.hbond>
-3.0000

> <Gold.PLP.part.metal>
0.0000

> <Gold.PLP.part.buried>
-0.9748

> <Gold.PLP.part.nonpolar>
-39.2409

> <Gold.PLP.part.repulsive>
0.1190

> <Gold.PLP.ligand.clash>
0.2271

> <Gold.PLP.ligand.torsion>
1.5718

> <Gold.PLP.Chemscore.Hbond>
4.0000

> <Gold.PLP.Chemscore.CHOScore>
0.0000

> <Gold.PLP.Chemscore.Metal>
0.0000

> <Gold.Chemscore.Hbonds>
donor molecule, donor type, donor heavy atom, donor atom, acceptor molecule, acceptor atom, score
      L1  H     3    44       P1  7948  1.95
      L1  H     9    28       P1  8028  2.00

> <Gold.PLP.Chemscore.Internal.Correction>
0.0514

> <Gold.Rescore>
     Score         DG    S(hbond)    S(metal)    S(lipo)     H(rot)  DE(clash)    DE(int)     intcor
     19.00     -21.32       1.94        0.00     114.17       1.56       0.68       1.64       ----

> <Gold.Chemscore.Fitness>
19.0002

> <Gold.Chemscore.DG>
-21.3174

> <Gold.Chemscore.ZeroCoef>
-5.4800

> <Gold.Chemscore.Hbond>
1.9357

> <Gold.Chemscore.Metal>
0.0000

> <Gold.Chemscore.Lipo>
114.1666

> <Gold.Chemscore.Internal_Hbond>
0.0000

> <Gold.Chemscore.DEClash>
0.6759

> <Gold.Chemscore.DEInternal>
1.6413

> <Gold.Chemscore.Rot>
1.5567

> <Gold.Chemscore.Internal.Correction>
   9.000000E+99

> <Gold.Chemscore.Hbonds>
donor molecule, donor type, donor heavy atom, donor atom, acceptor molecule, acceptor atom, score
      L1  H     3    44       P1  7948  0.91
      L1  H     9    28       P1  8028  0.78

> <Gold.Chemscore.Hbond.Weighted>
-6.4651

> <Gold.Chemscore.Metal.Weighted>
-0.0000

> <Gold.Chemscore.Lipo.Weighted>
-13.3575

> <Gold.Chemscore.Internal_Hbond.Weighted>
0.0000

> <Gold.Chemscore.DEClash.Weighted>
0.6759

> <Gold.Chemscore.DEInternal.Weighted>
1.6413

> <Gold.Chemscore.Rot.Weighted>
3.9852

> <Gold.Chemscore.Internal.Correction.Weighted>
   9.000000E+99

> <Gold.Protein.RotatedTorsions>
[ 6907 6896 6895 6894 ] final  178.24 input  -60.11 | X-H torsion
[ 7974 7965 7964 7962 ] final   85.80 input  175.53 | X-H torsion
[ 8008 7997 7996 7995 ] final  119.64 input   59.86 | X-H torsion
[ 10167 10162 10161 10158 ] final  -17.41 input  -65.29 | X-H torsion
[ 10718 10713 10712 10709 ] final  119.47 input   66.30 | X-H torsion
[ 10763 10752 10751 10750 ] final  123.38 input  -60.55 | X-H torsion
[ 11005 11000 10999 10996 ] final -136.99 input  -57.11 | X-H torsion

> <Gold.Protein.ActiveResidues>
 VAL166  LYS551  ARG553  GLY616  TRP617  ASP618  TYR619  PRO620  LYS621  CYS622 
 ASP623  PHE694  ASN695  SER759  ASP760  ASP761  ALA762  ILE779  LEU786  VAL792 
 PHE793  MET794  SER795  GLU796  ALA797  LYS798  CYS799  TRP800  GLU811  SER814 

> <Gold.Protein.RotatedAtoms>
  151.6910  133.3311  159.3242 H   0  0  0  0  0  0  0  0  0  0  0  0  # atno 6907 bound_to 6896
  150.7779  134.6698  159.6395 H   0  0  0  0  0  0  0  0  0  0  0  0  # atno 6908 bound_to 6896
  152.3827  134.6569  160.0189 H   0  0  0  0  0  0  0  0  0  0  0  0  # atno 6909 bound_to 6896
  145.5808  139.2325  143.2354 H   0  0  0  0  0  0  0  0  0  0  0  0  # atno 7974 bound_to 7965
  156.2605  140.2848  156.1024 H   0  0  0  0  0  0  0  0  0  0  0  0  # atno 8008 bound_to 7997
  155.1345  140.0394  157.2801 H   0  0  0  0  0  0  0  0  0  0  0  0  # atno 8009 bound_to 7997
  154.6575  140.2559  155.7152 H   0  0  0  0  0  0  0  0  0  0  0  0  # atno 8010 bound_to 7997
  140.7247  143.5018  150.9859 H   0  0  0  0  0  0  0  0  0  0  0  0  # atno 10167 bound_to 10162
  157.5959  131.1058  150.7901 H   0  0  0  0  0  0  0  0  0  0  0  0  # atno 10718 bound_to 10713
  153.6447  135.3373  155.3082 H   0  0  0  0  0  0  0  0  0  0  0  0  # atno 10763 bound_to 10752
  154.8551  135.4326  154.1968 H   0  0  0  0  0  0  0  0  0  0  0  0  # atno 10764 bound_to 10752
  153.2895  135.7016  153.7381 H   0  0  0  0  0  0  0  0  0  0  0  0  # atno 10765 bound_to 10752
  140.8753  134.1999  157.4625 H   0  0  0  0  0  0  0  0  0  0  0  0  # atno 11005 bound_to 11000
  146.1718  140.6634  142.9230 LP  0  0  0  0  0  0  0  0  0  0  0  0  # atno 17320 bound_to 7965
  144.7395  140.4902  143.6879 LP  0  0  0  0  0  0  0  0  0  0  0  0  # atno 17321 bound_to 7965
  139.8728  143.7171  152.3165 LP  0  0  0  0  0  0  0  0  0  0  0  0  # atno 17342 bound_to 10162
  139.7426  144.7555  151.0630 LP  0  0  0  0  0  0  0  0  0  0  0  0  # atno 17343 bound_to 10162
  156.8311  130.5016  149.5331 LP  0  0  0  0  0  0  0  0  0  0  0  0  # atno 17370 bound_to 10713
  156.1022  130.5977  150.9912 LP  0  0  0  0  0  0  0  0  0  0  0  0  # atno 17371 bound_to 10713
  139.8715  134.9793  156.5031 LP  0  0  0  0  0  0  0  0  0  0  0  0  # atno 17394 bound_to 11000
  140.8525  133.8121  155.9183 LP  0  0  0  0  0  0  0  0  0  0  0  0  # atno 17395 bound_to 11000

$$$$
