#       Name:                AV-unprocessed.smi:618
#       Creating user name   scv26
#       Creation time:       Fri Mar 27 00:00:50 2020


#       File generated by GOLD software.
#

@<TRIPOS>MOLECULE
AV-unprocessed.smi:618
    46    48     1
SMALL
NO_CHARGES


@<TRIPOS>ATOM
      1 ****        -1.1497   2.5533   0.3660 O.2            1 S1                 0.0000
      2 ****        -1.6050   1.6070  -0.2763 C.2            1 S1                 0.0000
      3 ****        -0.8436   0.6429  -0.8113 N.am           1 S1                 0.0000
      4 ****         0.6102   0.5726  -0.7104 C.3            1 S1                 0.0000
      5 ****         1.0621  -0.0229   0.6404 C.3            1 S1                 0.0000
      6 ****         2.6012  -0.0589   0.7933 C.3            1 S1                 0.0000
      7 ****         3.1722  -1.1273  -0.0057 N.3            1 S1                 0.0000
      8 ****         4.5960  -1.3392   0.1156 C.3            1 S1                 0.0000
      9 ****         4.8262  -2.7383  -0.4816 C.3            1 S1                 0.0000
     10 ****         3.4379  -3.4131  -0.4267 C.3            1 S1                 0.0000
     11 ****         2.5960  -2.3961   0.3464 C.3            1 S1                 0.0000
     12 ****         1.0829  -2.3936   0.0929 C.3            1 S1                 0.0000
     13 ****         0.5007  -1.3289   0.8517 O.3            1 S1                 0.0000
     14 ****        -2.9091   1.3861  -0.5143 N.am           1 S1                 0.0000
     15 ****        -4.0178   2.1935  -0.1437 C.ar           1 S1                 0.0000
     16 ****        -5.2856   1.5828  -0.0539 C.ar           1 S1                 0.0000
     17 ****        -6.4016   2.3680   0.2929 C.ar           1 S1                 0.0000
     18 ****        -6.2064   3.7430   0.5266 C.ar           1 S1                 0.0000
     19 ****        -5.0035   4.3470   0.4288 N.ar           1 S1                 0.0000
     20 ****        -3.9368   3.5873   0.0987 C.ar           1 S1                 0.0000
     21 ****        -1.3006  -0.1024  -1.3160 H              1 S1                 0.0000
     22 ****         0.9820  -0.0243  -1.5427 H              1 S1                 0.0000
     23 ****         1.0370   1.5683  -0.8421 H              1 S1                 0.0000
     24 ****         0.6701   0.6164   1.4322 H              1 S1                 0.0000
     25 ****         3.0359   0.8995   0.5080 H              1 S1                 0.0000
     26 ****         2.8524  -0.2147   1.8435 H              1 S1                 0.0000
     27 ****         5.1635  -0.5635  -0.3990 H              1 S1                 0.0000
     28 ****         4.8893  -1.3331   1.1667 H              1 S1                 0.0000
     29 ****         5.1756  -2.6717  -1.5126 H              1 S1                 0.0000
     30 ****         5.5723  -3.2909   0.0902 H              1 S1                 0.0000
     31 ****         3.0475  -3.5506  -1.4361 H              1 S1                 0.0000
     32 ****         3.4615  -4.3864   0.0642 H              1 S1                 0.0000
     33 ****         2.7592  -2.5731   1.4117 H              1 S1                 0.0000
     34 ****         0.8601  -2.2710  -0.9675 H              1 S1                 0.0000
     35 ****         0.6403  -3.3392   0.4058 H              1 S1                 0.0000
     36 ****        -3.1379   0.5150  -0.9703 H              1 S1                 0.0000
     37 ****        -5.4039   0.5259  -0.2433 H              1 S1                 0.0000
     38 ****        -7.3843   1.9279   0.3766 H              1 S1                 0.0000
     39 ****        -7.0398   4.3759   0.7938 H              1 S1                 0.0000
     40 ****        -3.0076   4.1283   0.0092 H              1 S1                 0.0000
     41 ****        -0.1633   2.6307   0.5110 LP             1 S1                 0.0000
     42 ****        -1.7662   3.2446   0.7427 LP             1 S1                 0.0000
     43 ****         2.9702  -0.8176  -0.9348 LP             1 S1                 0.0000
     44 ****        -0.4713  -1.2849   0.6208 LP             1 S1                 0.0000
     45 ****         0.6033  -1.5526   1.8209 LP             1 S1                 0.0000
     46 ****        -4.9049   5.3280   0.5958 LP             1 S1                 0.0000
@<TRIPOS>BOND
    1    1    2 2     
    2    2    3 am    
    3    2   14 am    
    4    3    4 1     
    5    3   21 1     
    6    4    5 1     
    7    4   22 1     
    8    4   23 1     
    9    5   13 1     
   10    5    6 1     
   11    5   24 1     
   12    6    7 1     
   13    6   25 1     
   14    6   26 1     
   15    7   11 1     
   16    7    8 1     
   17    8    9 1     
   18    8   27 1     
   19    8   28 1     
   20    9   10 1     
   21    9   29 1     
   22    9   30 1     
   23   10   11 1     
   24   10   31 1     
   25   10   32 1     
   26   11   12 1     
   27   11   33 1     
   28   12   13 1     
   29   12   34 1     
   30   12   35 1     
   31   14   15 1     
   32   14   36 1     
   33   15   20 ar    
   34   15   16 ar    
   35   16   17 ar    
   36   16   37 1     
   37   17   18 ar    
   38   17   38 1     
   39   18   19 ar    
   40   18   39 1     
   41   19   20 ar    
   42   20   40 1     
   43    1   41 1     
   44    1   42 1     
   45    7   43 1     
   46   13   44 1     
   47   13   45 1     
   48   19   46 1     
@<TRIPOS>SUBSTRUCTURE
      1 S1             1
@<TRIPOS>SET
LONE_PAIRS      STATIC     ATOMS    <user>   **** ""
6 41 42 43 44 45 46
DONOR_HYDROGENS      STATIC     ATOMS    <user>   **** ""
2 21 36
ATOM$BLUE        STATIC     ATOMS    COLORGROUP SYSTEM
6 41 42 43 44 45 46
ATOM$RED        STATIC     ATOMS    COLORGROUP SYSTEM
2 21 36
