#       Name:                AV-unprocessed.smi:120
#       Creating user name   scv26
#       Creation time:       Thu Mar 26 18:26:47 2020


#       File generated by GOLD software.
#

@<TRIPOS>MOLECULE
AV-unprocessed.smi:120
    57    60     1
SMALL
NO_CHARGES


@<TRIPOS>ATOM
      1 ****        -3.8751   0.5780   0.5393 C.3            1 S1                 0.0000
      2 ****        -4.5698  -0.6248   0.8362 O.3            1 S1                 0.0000
      3 ****        -3.8695  -1.8111   0.7813 C.ar           1 S1                 0.0000
      4 ****        -4.5890  -2.9915   1.0491 C.ar           1 S1                 0.0000
      5 ****        -3.9493  -4.2426   1.0076 C.ar           1 S1                 0.0000
      6 ****        -2.5798  -4.3234   0.6974 C.ar           1 S1                 0.0000
      7 ****        -1.8264  -3.1579   0.4271 C.ar           1 S1                 0.0000
      8 ****        -0.3855  -3.2392   0.1026 C.2            1 S1                 0.0000
      9 ****         0.1739  -4.3636  -0.3262 N.2            1 S1                 0.0000
     10 ****         1.5128  -3.9909  -0.5195 O.3            1 S1                 0.0000
     11 ****         1.5907  -2.6799  -0.1778 C.2            1 S1                 0.0000
     12 ****         2.9176  -1.9893  -0.2829 C.3            1 S1                 0.0000
     13 ****         2.7646  -0.6324  -0.7844 N.am           1 S1                 0.0000
     14 ****         2.6687  -0.4616  -2.1871 C.2            1 S1                 0.0000
     15 ****         2.7438  -1.4120  -2.9677 O.2            1 S1                 0.0000
     16 ****         2.4580   0.9166  -2.6167 C.2            1 S1                 0.0000
     17 ****         2.3488   1.1948  -3.9268 F              1 S1                 0.0000
     18 ****         2.3615   1.9203  -1.7183 C.2            1 S1                 0.0000
     19 ****         2.4560   1.7222  -0.3507 N.am           1 S1                 0.0000
     20 ****         2.3147   2.8708   0.6238 C.3            1 S1                 0.0000
     21 ****         0.8579   2.9968   1.0850 C.3            1 S1                 0.0000
     22 ****         0.3147   4.0277   0.1201 C.3            1 S1                 0.0000
     23 ****         1.5265   4.9310  -0.0762 C.3            1 S1                 0.0000
     24 ****         2.6567   4.0641  -0.0213 O.3            1 S1                 0.0000
     25 ****         2.6488   0.4187   0.1565 C.2            1 S1                 0.0000
     26 ****         2.6934   0.2152   1.3720 O.2            1 S1                 0.0000
     27 ****         0.4319  -2.1588   0.2248 N.2            1 S1                 0.0000
     28 ****        -2.4888  -1.9077   0.4744 C.ar           1 S1                 0.0000
     29 ****        -4.5651   1.4187   0.6097 H              1 S1                 0.0000
     30 ****        -3.4730   0.5662  -0.4748 H              1 S1                 0.0000
     31 ****        -3.0648   0.7566   1.2475 H              1 S1                 0.0000
     32 ****        -5.6413  -2.9373   1.2867 H              1 S1                 0.0000
     33 ****        -4.5099  -5.1424   1.2142 H              1 S1                 0.0000
     34 ****        -2.1091  -5.2953   0.6744 H              1 S1                 0.0000
     35 ****         3.4171  -1.9620   0.6860 H              1 S1                 0.0000
     36 ****         3.5888  -2.5249  -0.9566 H              1 S1                 0.0000
     37 ****         2.1955   2.9172  -2.0987 H              1 S1                 0.0000
     38 ****         3.0215   2.6739   1.4315 H              1 S1                 0.0000
     39 ****         0.3282   2.0435   1.0638 H              1 S1                 0.0000
     40 ****         0.8476   3.3847   2.1044 H              1 S1                 0.0000
     41 ****         0.0380   3.5537  -0.8225 H              1 S1                 0.0000
     42 ****        -0.5558   4.5593   0.5051 H              1 S1                 0.0000
     43 ****         1.4910   5.4847  -1.0147 H              1 S1                 0.0000
     44 ****         1.5985   5.6503   0.7407 H              1 S1                 0.0000
     45 ****        -1.9161  -1.0177   0.2637 H              1 S1                 0.0000
     46 ****        -5.3277  -0.6974   0.1879 LP             1 S1                 0.0000
     47 ****        -4.9321  -0.5368   1.7640 LP             1 S1                 0.0000
     48 ****        -0.2530  -5.2556  -0.4748 LP             1 S1                 0.0000
     49 ****         1.7734  -4.1163  -1.4768 LP             1 S1                 0.0000
     50 ****         2.1132  -4.5380   0.0637 LP             1 S1                 0.0000
     51 ****         2.8765  -2.3386  -2.6160 LP             1 S1                 0.0000
     52 ****         2.6721  -1.2566  -3.9530 LP             1 S1                 0.0000
     53 ****         2.9639   3.8615  -0.9512 LP             1 S1                 0.0000
     54 ****         3.3943   4.5134   0.4829 LP             1 S1                 0.0000
     55 ****         2.8146  -0.7147   1.7191 LP             1 S1                 0.0000
     56 ****         2.6084   0.9802   2.0104 LP             1 S1                 0.0000
     57 ****         0.2216  -1.2306   0.5317 LP             1 S1                 0.0000
@<TRIPOS>BOND
    1    1    2 1     
    2    1   29 1     
    3    1   30 1     
    4    1   31 1     
    5    2    3 1     
    6    3   28 ar    
    7    3    4 ar    
    8    4    5 ar    
    9    4   32 1     
   10    5    6 ar    
   11    5   33 1     
   12    6    7 ar    
   13    6   34 1     
   14    7    8 1     
   15    7   28 ar    
   16    8   27 1     
   17    8    9 2     
   18    9   10 1     
   19   10   11 1     
   20   11   12 1     
   21   11   27 2     
   22   12   13 1     
   23   12   35 1     
   24   12   36 1     
   25   13   25 am    
   26   13   14 am    
   27   14   15 2     
   28   14   16 1     
   29   16   17 1     
   30   16   18 2     
   31   18   19 1     
   32   18   37 1     
   33   19   20 1     
   34   19   25 am    
   35   20   24 1     
   36   20   21 1     
   37   20   38 1     
   38   21   22 1     
   39   21   39 1     
   40   21   40 1     
   41   22   23 1     
   42   22   41 1     
   43   22   42 1     
   44   23   24 1     
   45   23   43 1     
   46   23   44 1     
   47   25   26 2     
   48   28   45 1     
   49    2   46 1     
   50    2   47 1     
   51    9   48 1     
   52   10   49 1     
   53   10   50 1     
   54   15   51 1     
   55   15   52 1     
   56   24   53 1     
   57   24   54 1     
   58   26   55 1     
   59   26   56 1     
   60   27   57 1     
@<TRIPOS>SUBSTRUCTURE
      1 S1             1
@<TRIPOS>SET
LONE_PAIRS      STATIC     ATOMS    <user>   **** ""
12 46 47 48 49 50 51 52 53 54 55 56 57
ATOM$BLUE        STATIC     ATOMS    COLORGROUP SYSTEM
12 46 47 48 49 50 51 52 53 54 55 56 57
