AV-unprocessed.smi:1639|AV-procd|sdf|6549|dock3
  -GOLD-   22720 7233D 1   1.00000     0.00000
 Structure written by MMmdl.
 37 38  0  0  0  0  0  0  0  0  1 V2000
  152.3130  145.9267  160.1194 C   0  0  0  0  0  0  0  0  0  0  0  0
  151.2930  144.7869  160.0751 C   0  0  0  0  0  0  0  0  0  0  0  0
  151.7351  143.7457  160.9335 O   0  0  0  0  0  0  0  0  0  0  0  0
  152.5027  142.7364  160.2900 C   0  0  1  0  0  0  0  0  0  0  0  0
  152.8736  141.6088  161.2731 C   0  0  0  0  0  0  0  0  0  0  0  0
  153.5707  140.4637  160.5240 C   0  0  0  0  0  0  0  0  0  0  0  0
  152.7071  139.9558  159.3580 C   0  0  0  0  0  0  0  0  0  0  0  0
  152.3183  141.0547  158.4725 N   0  0  0  0  0  0  0  0  0  0  0  0
  151.8399  140.6681  157.2017 C   0  0  0  0  0  0  0  0  0  0  0  0
  150.7567  141.3493  156.5959 C   0  0  0  0  0  0  0  0  0  0  0  0
  150.3472  140.8941  155.3249 C   0  0  0  0  0  0  0  0  0  0  0  0
  149.1993  141.5467  154.5841 C   0  0  0  0  0  0  0  0  0  0  0  0
  150.9566  139.8588  154.7080 N   0  0  0  0  0  0  0  0  0  0  0  0
  151.9634  139.2834  155.3660 C   0  0  0  0  0  0  0  0  0  0  0  0
  152.5810  138.2269  154.7430 N   0  0  0  0  0  0  0  0  0  0  0  0
  152.4328  139.6256  156.5669 N   0  0  0  0  0  0  0  0  0  0  0  0
  151.6531  142.1807  159.1328 C   0  0  0  0  0  0  0  0  0  0  0  0
  152.0045  146.7510  159.4762 H   0  0  0  0  0  0  0  0  0  0  0  0
  153.2928  145.5878  159.7825 H   0  0  0  0  0  0  0  0  0  0  0  0
  152.4219  146.3152  161.1323 H   0  0  0  0  0  0  0  0  0  0  0  0
  150.3175  145.1529  160.3986 H   0  0  0  0  0  0  0  0  0  0  0  0
  151.1890  144.4289  159.0510 H   0  0  0  0  0  0  0  0  0  0  0  0
  153.4105  143.1714  159.8674 H   0  0  0  0  0  0  0  0  0  0  0  0
  153.5284  141.9771  162.0621 H   0  0  0  0  0  0  0  0  0  0  0  0
  151.9734  141.2334  161.7614 H   0  0  0  0  0  0  0  0  0  0  0  0
  154.5320  140.8099  160.1419 H   0  0  0  0  0  0  0  0  0  0  0  0
  153.7871  139.6450  161.2106 H   0  0  0  0  0  0  0  0  0  0  0  0
  153.2569  139.1812  158.8253 H   0  0  0  0  0  0  0  0  0  0  0  0
  151.8019  139.4855  159.7442 H   0  0  0  0  0  0  0  0  0  0  0  0
  150.2501  142.1702  157.0811 H   0  0  0  0  0  0  0  0  0  0  0  0
  148.6119  142.1789  155.2505 H   0  0  0  0  0  0  0  0  0  0  0  0
  148.5358  140.7917  154.1613 H   0  0  0  0  0  0  0  0  0  0  0  0
  149.5790  142.1657  153.7710 H   0  0  0  0  0  0  0  0  0  0  0  0
  152.2697  137.9206  153.8330 H   0  0  0  0  0  0  0  0  0  0  0  0
  153.4111  137.8148  155.1433 H   0  0  0  0  0  0  0  0  0  0  0  0
  150.6825  141.8501  159.5056 H   0  0  0  0  0  0  0  0  0  0  0  0
  151.4674  142.9816  158.4160 H   0  0  0  0  0  0  0  0  0  0  0  0
  1  2  1  0  0  0  0
  1 18  1  0  0  0  0
  1 19  1  0  0  0  0
  1 20  1  0  0  0  0
  2  3  1  0  0  0  0
  2 21  1  0  0  0  0
  2 22  1  0  0  0  0
  3  4  1  0  0  0  0
  4 17  1  0  0  0  0
  4  5  1  0  0  0  0
  4 23  1  0  0  0  0
  5  6  1  0  0  0  0
  5 24  1  0  0  0  0
  5 25  1  0  0  0  0
  6  7  1  0  0  0  0
  6 26  1  0  0  0  0
  6 27  1  0  0  0  0
  7  8  1  0  0  0  0
  7 28  1  0  0  0  0
  7 29  1  0  0  0  0
  8  9  1  0  0  0  0
  8 17  1  0  0  0  0
  9 16  1  0  0  0  0
  9 10  2  0  0  0  0
 10 11  1  0  0  0  0
 10 30  1  0  0  0  0
 11 12  1  0  0  0  0
 11 13  2  0  0  0  0
 12 31  1  0  0  0  0
 12 32  1  0  0  0  0
 12 33  1  0  0  0  0
 13 14  1  0  0  0  0
 14 15  1  0  0  0  0
 14 16  2  0  0  0  0
 15 34  1  0  0  0  0
 15 35  1  0  0  0  0
 17 36  1  0  0  0  0
 17 37  1  0  0  0  0
M  END
> <s_m_source_file>
AV-unprocessed.smi

> <i_m_source_file_index>
1639

> <i_lp_mmshare_version>
43012

> <i_f3d_flags>
0

> <s_epik_input>
W0NIM11bQ0gyXU9bQ0BASF0xW0NIMl1bQ0gyXVtDSDJdTihbQ0gyXTEpYzJbY0hdYyhbQ0gzXSluYyhuMilbTkgyXQ==

> <s_epik_cmdline>
J2VwaWtfcHl0aG9uJywgJy1waCcsICc3LjAnLCAnLXRuJywgJzgnLCAnLW1hJywgJzIwMCcsICctbWV0YWxfYmluZGluZycsICctaW1hZScsICc8aW5maWxlLm1hZT4nLCAnLW9tYWUnLCAnPG91dGZpbGUubWFlPic=

> <r_lp_tautomer_probability>
1

> <r_epik_Ionization_Penalty>
0.383805

> <r_epik_Ionization_Penalty_Charging>
0

> <r_epik_Ionization_Penalty_Neutral>
0.383805

> <r_epik_State_Penalty>
0.0922942

> <r_epik_Charging_Adjusted_Penalty>
0.0922942

> <i_epik_Tot_Q>
0

> <i_epik_Tot_abs_Q>
0

> <r_epik_Metal_State_Penalty>
0.050432

> <b_epik_Metal_Only>
0

> <s_lp_Force_Field>
OPLS_2005

> <r_lp_Energy>
9.4445

> <b_lp_Chiralities_Consistent>
1

> <s_lp_Variant>
AV-unprocessed.smi:1639-2

> <Gold.Version>
5.8.1

> <Gold.Id.Protein>
6NUR|6NUR_protein|mol2

> <Gold.PLP.Fitness>
43.2744

> <Gold.PLP.PLP>
-38.6592

> <Gold.PLP.part.hbond>
-2.0000

> <Gold.PLP.part.metal>
0.0000

> <Gold.PLP.part.buried>
-5.4640

> <Gold.PLP.part.nonpolar>
-31.2118

> <Gold.PLP.part.repulsive>
0.4216

> <Gold.PLP.ligand.clash>
0.0000

> <Gold.PLP.ligand.torsion>
0.5248

> <Gold.PLP.Chemscore.Hbond>
1.7500

> <Gold.PLP.Chemscore.CHOScore>
0.0000

> <Gold.PLP.Chemscore.Metal>
0.0000

> <Gold.Chemscore.Hbonds>
donor molecule, donor type, donor heavy atom, donor atom, acceptor molecule, acceptor atom, score
      P1  H  7989  7998       L1    13  0.65
      P1  H  7997  8009       L1    16  1.00

> <Gold.PLP.Chemscore.Internal.Correction>
0.4149

> <Gold.Rescore>
     Score         DG    S(hbond)    S(metal)    S(lipo)     H(rot)  DE(clash)    DE(int)     intcor
     13.82     -14.34       0.85        0.00      82.71       1.43       0.01       0.51       ----

> <Gold.Chemscore.Fitness>
13.8168

> <Gold.Chemscore.DG>
-14.3384

> <Gold.Chemscore.ZeroCoef>
-5.4800

> <Gold.Chemscore.Hbond>
0.8503

> <Gold.Chemscore.Metal>
0.0000

> <Gold.Chemscore.Lipo>
82.7131

> <Gold.Chemscore.Internal_Hbond>
0.0000

> <Gold.Chemscore.DEClash>
0.0121

> <Gold.Chemscore.DEInternal>
0.5095

> <Gold.Chemscore.Rot>
1.4293

> <Gold.Chemscore.Internal.Correction>
   9.000000E+99

> <Gold.Chemscore.Hbonds>
donor molecule, donor type, donor heavy atom, donor atom, acceptor molecule, acceptor atom, score
      P1  H  7989  7998       L1    13  0.04
      P1  H  7997  8009       L1    16  0.33

> <Gold.Chemscore.Hbond.Weighted>
-2.8399

> <Gold.Chemscore.Metal.Weighted>
-0.0000

> <Gold.Chemscore.Lipo.Weighted>
-9.6774

> <Gold.Chemscore.Internal_Hbond.Weighted>
0.0000

> <Gold.Chemscore.DEClash.Weighted>
0.0121

> <Gold.Chemscore.DEInternal.Weighted>
0.5095

> <Gold.Chemscore.Rot.Weighted>
3.6589

> <Gold.Chemscore.Internal.Correction.Weighted>
   9.000000E+99

> <Gold.Protein.RotatedTorsions>
[ 6907 6896 6895 6894 ] final  131.34 input  -60.11 | X-H torsion
[ 7974 7965 7964 7962 ] final   19.05 input  175.53 | X-H torsion
[ 8008 7997 7996 7995 ] final -161.44 input   59.86 | X-H torsion
[ 10167 10162 10161 10158 ] final  112.59 input  -65.29 | X-H torsion
[ 10718 10713 10712 10709 ] final  160.54 input   66.30 | X-H torsion
[ 10763 10752 10751 10750 ] final  -73.85 input  -60.55 | X-H torsion
[ 11005 11000 10999 10996 ] final -151.27 input  -57.11 | X-H torsion

> <Gold.Protein.ActiveResidues>
 VAL166  LYS551  ARG553  GLY616  TRP617  ASP618  TYR619  PRO620  LYS621  CYS622 
 ASP623  PHE694  ASN695  SER759  ASP760  ASP761  ALA762  ILE779  LEU786  VAL792 
 PHE793  MET794  SER795  GLU796  ALA797  LYS798  CYS799  TRP800  GLU811  SER814 

> <Gold.Protein.RotatedAtoms>
  152.3436  133.6095  159.5893 H   0  0  0  0  0  0  0  0  0  0  0  0  # atno 6907 bound_to 6896
  150.7493  133.9684  159.3547 H   0  0  0  0  0  0  0  0  0  0  0  0  # atno 6908 bound_to 6896
  151.7545  135.0825  160.0387 H   0  0  0  0  0  0  0  0  0  0  0  0  # atno 6909 bound_to 6896
  146.2163  139.8369  142.8649 H   0  0  0  0  0  0  0  0  0  0  0  0  # atno 7974 bound_to 7965
  155.7922  140.0880  157.2003 H   0  0  0  0  0  0  0  0  0  0  0  0  # atno 8008 bound_to 7997
  154.3985  140.1488  156.3234 H   0  0  0  0  0  0  0  0  0  0  0  0  # atno 8009 bound_to 7997
  155.8547  140.3433  155.5719 H   0  0  0  0  0  0  0  0  0  0  0  0  # atno 8010 bound_to 7997
  139.6524  144.7128  151.2022 H   0  0  0  0  0  0  0  0  0  0  0  0  # atno 10167 bound_to 10162
  157.1489  131.0559  151.2290 H   0  0  0  0  0  0  0  0  0  0  0  0  # atno 10718 bound_to 10713
  154.4651  135.5883  153.6283 H   0  0  0  0  0  0  0  0  0  0  0  0  # atno 10763 bound_to 10752
  152.9828  135.6053  154.3437 H   0  0  0  0  0  0  0  0  0  0  0  0  # atno 10764 bound_to 10752
  154.3313  135.2842  155.2449 H   0  0  0  0  0  0  0  0  0  0  0  0  # atno 10765 bound_to 10752
  140.7313  134.3617  157.5166 H   0  0  0  0  0  0  0  0  0  0  0  0  # atno 11005 bound_to 11000
  145.2939  141.0175  143.3647 LP  0  0  0  0  0  0  0  0  0  0  0  0  # atno 17320 bound_to 7965
  144.9057  139.4593  143.6611 LP  0  0  0  0  0  0  0  0  0  0  0  0  # atno 17321 bound_to 7965
  140.7544  143.6128  150.8589 LP  0  0  0  0  0  0  0  0  0  0  0  0  # atno 17342 bound_to 10162
  139.9777  143.5986  152.2953 LP  0  0  0  0  0  0  0  0  0  0  0  0  # atno 17343 bound_to 10162
  157.4238  130.7452  149.6935 LP  0  0  0  0  0  0  0  0  0  0  0  0  # atno 17370 bound_to 10713
  155.9774  130.4063  150.3714 LP  0  0  0  0  0  0  0  0  0  0  0  0  # atno 17371 bound_to 10713
  139.8825  134.9020  156.2824 LP  0  0  0  0  0  0  0  0  0  0  0  0  # atno 17394 bound_to 11000
  140.9918  133.7204  156.0825 LP  0  0  0  0  0  0  0  0  0  0  0  0  # atno 17395 bound_to 11000

$$$$
