AV-unprocessed.smi:2044|AV-procd|sdf|8303|dock10
  -GOLD-   2272010573D 1   1.00000     0.00000
 Structure written by MMmdl.
 38 39  0  0  0  0  0  0  0  0  2 V2000
  151.9273  144.0296  161.3438 C   0  0  0  0  0  0  0  0  0  0  0  0
  152.6699  142.8270  160.8710 C   0  0  0  0  0  0  0  0  0  0  0  0
  153.5749  141.9992  161.4726 C   0  0  0  0  0  0  0  0  0  0  0  0
  153.8847  141.0594  160.4515 C   0  0  0  0  0  0  0  0  0  0  0  0
  154.7287  140.0221  160.5632 N   0  5  0  0  0  0  0  0  0  0  0  0
  154.5750  138.9303  159.7790 C   0  0  0  0  0  0  0  0  0  0  0  0
  154.3792  138.9259  158.5613 O   0  0  0  0  0  0  0  0  0  0  0  0
  154.6595  137.7706  160.4467 N   0  0  0  0  0  0  0  0  0  0  0  0
  154.5604  136.4354  159.8614 C   0  0  0  0  0  0  0  0  0  0  0  0
  155.3348  135.3475  160.6621 C   0  0  1  0  0  0  0  0  0  0  0  0
  156.7886  135.8345  160.8910 C   0  0  0  0  0  0  0  0  0  0  0  0
  154.6601  134.9517  161.9208 N   0  0  0  0  0  0  0  0  0  0  0  0
  154.6534  136.0310  162.9152 C   0  0  0  0  0  0  0  0  0  0  0  0
  153.9802  135.6233  164.2369 C   0  0  0  0  0  0  0  0  0  0  0  0
  154.6270  134.4762  164.7699 O   0  0  0  0  0  0  0  0  0  0  0  0
  154.5907  133.3782  163.8689 C   0  0  0  0  0  0  0  0  0  0  0  0
  155.2666  133.7690  162.5428 C   0  0  0  0  0  0  0  0  0  0  0  0
  153.2147  141.2876  159.3344 N   0  0  0  0  0  0  0  0  0  0  0  0
  152.4378  142.4231  159.5932 O   0  0  0  0  0  0  0  0  0  0  0  0
  151.1807  143.7526  162.0879 H   0  0  0  0  0  0  0  0  0  0  0  0
  151.4150  144.5246  160.5184 H   0  0  0  0  0  0  0  0  0  0  0  0
  152.6077  144.7496  161.7986 H   0  0  0  0  0  0  0  0  0  0  0  0
  153.9579  142.0571  162.4802 H   0  0  0  0  0  0  0  0  0  0  0  0
  154.8171  137.8208  161.4424 H   0  0  0  0  0  0  0  0  0  0  0  0
  153.5042  136.1709  159.8028 H   0  0  0  0  0  0  0  0  0  0  0  0
  154.9139  136.5187  158.8347 H   0  0  0  0  0  0  0  0  0  0  0  0
  155.3945  134.4634  160.0257 H   0  0  0  0  0  0  0  0  0  0  0  0
  157.2650  136.1696  159.9705 H   0  0  0  0  0  0  0  0  0  0  0  0
  157.4352  135.0449  161.2703 H   0  0  0  0  0  0  0  0  0  0  0  0
  156.8189  136.6656  161.5960 H   0  0  0  0  0  0  0  0  0  0  0  0
  155.6758  136.3551  163.1156 H   0  0  0  0  0  0  0  0  0  0  0  0
  154.1147  136.8982  162.5380 H   0  0  0  0  0  0  0  0  0  0  0  0
  154.0446  136.4359  164.9604 H   0  0  0  0  0  0  0  0  0  0  0  0
  152.9201  135.4157  164.0827 H   0  0  0  0  0  0  0  0  0  0  0  0
  155.1060  132.5305  164.3206 H   0  0  0  0  0  0  0  0  0  0  0  0
  153.5575  133.0710  163.6992 H   0  0  0  0  0  0  0  0  0  0  0  0
  155.1891  132.9054  161.8856 H   0  0  0  0  0  0  0  0  0  0  0  0
  156.3298  133.9447  162.7145 H   0  0  0  0  0  0  0  0  0  0  0  0
  1  2  1  0  0  0  0
  1 20  1  0  0  0  0
  1 21  1  0  0  0  0
  1 22  1  0  0  0  0
  2 19  1  0  0  0  0
  2  3  2  0  0  0  0
  3  4  1  0  0  0  0
  3 23  1  0  0  0  0
  4  5  1  0  0  0  0
  4 18  2  0  0  0  0
  5  6  1  0  0  0  0
  6  7  2  0  0  0  0
  6  8  1  0  0  0  0
  8  9  1  0  0  0  0
  8 24  1  0  0  0  0
  9 10  1  0  0  0  0
  9 25  1  0  0  0  0
  9 26  1  0  0  0  0
 10 11  1  0  0  0  0
 10 12  1  0  0  0  0
 10 27  1  0  0  0  0
 11 28  1  0  0  0  0
 11 29  1  0  0  0  0
 11 30  1  0  0  0  0
 12 17  1  0  0  0  0
 12 13  1  0  0  0  0
 13 14  1  0  0  0  0
 13 31  1  0  0  0  0
 13 32  1  0  0  0  0
 14 15  1  0  0  0  0
 14 33  1  0  0  0  0
 14 34  1  0  0  0  0
 15 16  1  0  0  0  0
 16 17  1  0  0  0  0
 16 35  1  0  0  0  0
 16 36  1  0  0  0  0
 17 37  1  0  0  0  0
 17 38  1  0  0  0  0
 18 19  1  0  0  0  0
M  CHG  1   5  -1
M  END
> <s_m_source_file>
AV-unprocessed.smi

> <i_m_source_file_index>
2044

> <i_lp_mmshare_version>
43012

> <i_f3d_flags>
0

> <s_epik_input>
W0NIM11jMVtjSF1jKG5vMSlbTkhdQyg9TylbTkhdW0NIMl1bQ0BIXShbQ0gzXSlOMltDSDJdW0NIMl1PW0NIMl1bQ0gyXTI=

> <s_epik_cmdline>
J2VwaWtfcHl0aG9uJywgJy1waCcsICc3LjAnLCAnLXRuJywgJzgnLCAnLW1hJywgJzIwMCcsICctbWV0YWxfYmluZGluZycsICctaW1hZScsICc8aW5maWxlLm1hZT4nLCAnLW9tYWUnLCAnPG91dGZpbGUubWFlPic=

> <r_epik_Ionization_Penalty>
6.88367

> <r_epik_Ionization_Penalty_Charging>
6.57198

> <r_epik_Ionization_Penalty_Neutral>
0.311681

> <r_epik_State_Penalty>
6.77619

> <r_epik_Charging_Adjusted_Penalty>
13.3482

> <i_epik_Tot_Q>
-1

> <i_epik_Tot_abs_Q>
1

> <r_epik_Metal_State_Penalty>
2.70533

> <b_epik_Metal_Only>
1

> <s_lp_Force_Field>
OPLS_2005

> <r_lp_Energy>
21.654

> <b_lp_Chiralities_Consistent>
1

> <s_lp_Variant>
AV-unprocessed.smi:2044-6

> <Gold.Version>
5.8.1

> <Gold.Id.Protein>
6NUR|6NUR_protein|mol2

> <Gold.PLP.Fitness>
32.2070

> <Gold.PLP.PLP>
-30.8492

> <Gold.PLP.part.hbond>
-1.0000

> <Gold.PLP.part.metal>
0.0000

> <Gold.PLP.part.buried>
-5.5633

> <Gold.PLP.part.nonpolar>
-24.8109

> <Gold.PLP.part.repulsive>
0.1314

> <Gold.PLP.ligand.clash>
0.0000

> <Gold.PLP.ligand.torsion>
0.8372

> <Gold.PLP.Chemscore.Hbond>
1.0000

> <Gold.PLP.Chemscore.CHOScore>
0.0000

> <Gold.PLP.Chemscore.Metal>
0.0000

> <Gold.Chemscore.Hbonds>
donor molecule, donor type, donor heavy atom, donor atom, acceptor molecule, acceptor atom, score
      P1  H  7997  8009       L1     7  1.00

> <Gold.PLP.Chemscore.Internal.Correction>
0.0322

> <Gold.Rescore>
     Score         DG    S(hbond)    S(metal)    S(lipo)     H(rot)  DE(clash)    DE(int)     intcor
     10.09     -13.40       1.00        0.00      72.98       1.55       0.04       3.26       ----

> <Gold.Chemscore.Fitness>
10.0937

> <Gold.Chemscore.DG>
-13.3971

> <Gold.Chemscore.ZeroCoef>
-5.4800

> <Gold.Chemscore.Hbond>
0.9997

> <Gold.Chemscore.Metal>
0.0000

> <Gold.Chemscore.Lipo>
72.9769

> <Gold.Chemscore.Internal_Hbond>
0.0000

> <Gold.Chemscore.DEClash>
0.0413

> <Gold.Chemscore.DEInternal>
3.2621

> <Gold.Chemscore.Rot>
1.5470

> <Gold.Chemscore.Internal.Correction>
   9.000000E+99

> <Gold.Chemscore.Hbonds>
donor molecule, donor type, donor heavy atom, donor atom, acceptor molecule, acceptor atom, score
      P1  H  7997  8009       L1     7  1.00

> <Gold.Chemscore.Hbond.Weighted>
-3.3391

> <Gold.Chemscore.Metal.Weighted>
-0.0000

> <Gold.Chemscore.Lipo.Weighted>
-8.5383

> <Gold.Chemscore.Internal_Hbond.Weighted>
0.0000

> <Gold.Chemscore.DEClash.Weighted>
0.0413

> <Gold.Chemscore.DEInternal.Weighted>
3.2621

> <Gold.Chemscore.Rot.Weighted>
3.9603

> <Gold.Chemscore.Internal.Correction.Weighted>
   9.000000E+99

> <Gold.Protein.RotatedTorsions>
[ 6907 6896 6895 6894 ] final  162.97 input  -60.11 | X-H torsion
[ 7974 7965 7964 7962 ] final  -31.56 input  175.53 | X-H torsion
[ 8008 7997 7996 7995 ] final  128.41 input   59.86 | X-H torsion
[ 10167 10162 10161 10158 ] final -128.01 input  -65.29 | X-H torsion
[ 10718 10713 10712 10709 ] final -160.30 input   66.30 | X-H torsion
[ 10763 10752 10751 10750 ] final  -86.27 input  -60.55 | X-H torsion
[ 11005 11000 10999 10996 ] final   44.31 input  -57.11 | X-H torsion

> <Gold.Protein.ActiveResidues>
 VAL166  LYS551  ARG553  GLY616  TRP617  ASP618  TYR619  PRO620  LYS621  CYS622 
 ASP623  PHE694  ASN695  SER759  ASP760  ASP761  ALA762  ILE779  LEU786  VAL792 
 PHE793  MET794  SER795  GLU796  ALA797  LYS798  CYS799  TRP800  GLU811  SER814 

> <Gold.Protein.RotatedAtoms>
  151.9323  133.3614  159.3934 H   0  0  0  0  0  0  0  0  0  0  0  0  # atno 6907 bound_to 6896
  150.7014  134.4525  159.5352 H   0  0  0  0  0  0  0  0  0  0  0  0  # atno 6908 bound_to 6896
  152.2167  134.8451  160.0541 H   0  0  0  0  0  0  0  0  0  0  0  0  # atno 6909 bound_to 6896
  146.1058  140.5682  142.8800 H   0  0  0  0  0  0  0  0  0  0  0  0  # atno 7974 bound_to 7965
  156.2914  140.2645  156.2431 H   0  0  0  0  0  0  0  0  0  0  0  0  # atno 8008 bound_to 7997
  154.9958  140.0388  157.2357 H   0  0  0  0  0  0  0  0  0  0  0  0  # atno 8009 bound_to 7997
  154.7646  140.2767  155.6191 H   0  0  0  0  0  0  0  0  0  0  0  0  # atno 8010 bound_to 7997
  139.9548  143.6015  152.2464 H   0  0  0  0  0  0  0  0  0  0  0  0  # atno 10167 bound_to 10162
  156.5802  130.8726  151.2862 H   0  0  0  0  0  0  0  0  0  0  0  0  # atno 10718 bound_to 10713
  154.6205  135.5455  153.7570 H   0  0  0  0  0  0  0  0  0  0  0  0  # atno 10763 bound_to 10752
  153.0236  135.6411  154.1447 H   0  0  0  0  0  0  0  0  0  0  0  0  # atno 10764 bound_to 10752
  154.1381  135.2910  155.3148 H   0  0  0  0  0  0  0  0  0  0  0  0  # atno 10765 bound_to 10752
  140.1564  134.4397  155.8347 H   0  0  0  0  0  0  0  0  0  0  0  0  # atno 11005 bound_to 11000
  144.7470  140.5092  143.6829 LP  0  0  0  0  0  0  0  0  0  0  0  0  # atno 17320 bound_to 7965
  145.5764  139.1486  143.3260 LP  0  0  0  0  0  0  0  0  0  0  0  0  # atno 17321 bound_to 7965
  139.6600  144.7662  151.1981 LP  0  0  0  0  0  0  0  0  0  0  0  0  # atno 17342 bound_to 10162
  140.7572  143.6025  150.8685 LP  0  0  0  0  0  0  0  0  0  0  0  0  # atno 17343 bound_to 10162
  157.7328  130.9721  150.1947 LP  0  0  0  0  0  0  0  0  0  0  0  0  # atno 17370 bound_to 10713
  156.2638  130.3714  149.8102 LP  0  0  0  0  0  0  0  0  0  0  0  0  # atno 17371 bound_to 10713
  141.2205  133.6894  156.7514 LP  0  0  0  0  0  0  0  0  0  0  0  0  # atno 17394 bound_to 11000
  140.2543  134.8516  157.3697 LP  0  0  0  0  0  0  0  0  0  0  0  0  # atno 17395 bound_to 11000

$$$$
