AV-unprocessed.smi:223|AV-procd|sdf|1705|dock1
  -GOLD-   2262020163D 1   1.00000     0.00000
 Structure written by MMmdl.
 47 50  0  0  0  0  0  0  0  0  1 V2000
  151.6989  139.1522  157.9933 C   0  0  0  0  0  0  0  0  0  0  0  0
  151.2298  138.7613  156.5873 C   0  0  2  0  0  0  0  0  0  0  0  0
  152.1198  139.3302  155.5624 C   0  0  0  0  0  0  0  0  0  0  0  0
  152.8196  139.7766  154.7565 N   0  0  0  0  0  0  0  0  0  0  0  0
  149.7670  139.1828  156.3511 C   0  0  0  0  0  0  0  0  0  0  0  0
  149.3149  138.9198  154.9853 N   0  0  0  0  0  0  0  0  0  0  0  0
  148.5430  137.8247  154.7148 C   0  0  0  0  0  0  0  0  0  0  0  0
  148.8777  136.6590  155.3303 N   0  0  0  0  0  0  0  0  0  0  0  0
  148.1729  135.5435  155.1305 C   0  0  0  0  0  0  0  0  0  0  0  0
  147.1006  135.3649  154.3617 N   0  0  0  0  0  0  0  0  0  0  0  0
  146.7476  136.5212  153.7334 C   0  0  0  0  0  0  0  0  0  0  0  0
  147.4065  137.7827  153.8434 C   0  0  0  0  0  0  0  0  0  0  0  0
  146.7549  138.7045  153.0277 N   0  0  0  0  0  0  0  0  0  0  0  0
  145.7733  138.0381  152.4877 C   0  0  0  0  0  0  0  0  0  0  0  0
  145.6870  136.7198  152.8662 N   0  0  0  0  0  0  0  0  0  0  0  0
  144.6968  135.7484  152.4251 C   0  0  0  0  0  0  0  0  0  0  0  0
  145.1021  134.9871  151.1402 C   0  0  2  0  0  0  0  0  0  0  0  0
  145.2079  135.9083  150.0687 O   0  0  0  0  0  0  0  0  0  0  0  0
  144.0983  133.9106  150.7477 C   0  0  0  0  0  0  0  0  0  0  0  0
  144.9631  132.9004  150.0062 C   0  0  0  0  0  0  0  0  0  0  0  0
  146.1586  132.8850  150.7682 O   0  0  0  0  0  0  0  0  0  0  0  0
  146.4269  134.2027  151.2398 C   0  0  0  0  0  0  0  0  0  0  0  0
  149.1002  140.0913  154.1352 C   0  0  0  0  0  0  0  0  0  0  0  0
  149.2394  141.4823  154.7230 C   0  0  0  0  0  0  0  0  0  0  0  0
  147.8759  140.9532  154.3665 C   0  0  0  0  0  0  0  0  0  0  0  0
  152.7263  138.8310  158.1657 H   0  0  0  0  0  0  0  0  0  0  0  0
  151.0745  138.6886  158.7574 H   0  0  0  0  0  0  0  0  0  0  0  0
  151.6585  140.2324  158.1367 H   0  0  0  0  0  0  0  0  0  0  0  0
  151.3267  137.6809  156.4909 H   0  0  0  0  0  0  0  0  0  0  0  0
  149.0964  138.7013  157.0613 H   0  0  0  0  0  0  0  0  0  0  0  0
  149.6767  140.2486  156.5621 H   0  0  0  0  0  0  0  0  0  0  0  0
  148.5161  134.6703  155.6653 H   0  0  0  0  0  0  0  0  0  0  0  0
  145.0816  138.4952  151.7950 H   0  0  0  0  0  0  0  0  0  0  0  0
  144.5299  135.0432  153.2403 H   0  0  0  0  0  0  0  0  0  0  0  0
  143.7496  136.2678  152.2730 H   0  0  0  0  0  0  0  0  0  0  0  0
  145.3260  135.4232  149.2665 H   0  0  0  0  0  0  0  0  0  0  0  0
  143.6827  133.4365  151.6380 H   0  0  0  0  0  0  0  0  0  0  0  0
  143.2649  134.2829  150.1505 H   0  0  0  0  0  0  0  0  0  0  0  0
  144.5072  131.9117  149.9518 H   0  0  0  0  0  0  0  0  0  0  0  0
  145.1788  133.2385  148.9915 H   0  0  0  0  0  0  0  0  0  0  0  0
  147.2257  134.6601  150.6536 H   0  0  0  0  0  0  0  0  0  0  0  0
  146.7820  134.1216  152.2666 H   0  0  0  0  0  0  0  0  0  0  0  0
  149.4131  139.9799  153.0987 H   0  0  0  0  0  0  0  0  0  0  0  0
  149.4745  141.5714  155.7819 H   0  0  0  0  0  0  0  0  0  0  0  0
  149.6639  142.2548  154.0853 H   0  0  0  0  0  0  0  0  0  0  0  0
  147.3866  141.3736  153.4904 H   0  0  0  0  0  0  0  0  0  0  0  0
  147.2136  140.6967  155.1913 H   0  0  0  0  0  0  0  0  0  0  0  0
  1  2  1  0  0  0  0
  1 26  1  0  0  0  0
  1 27  1  0  0  0  0
  1 28  1  0  0  0  0
  2  3  1  0  0  0  0
  2  5  1  0  0  0  0
  2 29  1  0  0  0  0
  3  4  3  0  0  0  0
  5  6  1  0  0  0  0
  5 30  1  0  0  0  0
  5 31  1  0  0  0  0
  6  7  1  0  0  0  0
  6 23  1  0  0  0  0
  7 12  1  0  0  0  0
  7  8  2  0  0  0  0
  8  9  1  0  0  0  0
  9 10  2  0  0  0  0
  9 32  1  0  0  0  0
 10 11  1  0  0  0  0
 11 15  1  0  0  0  0
 11 12  2  0  0  0  0
 12 13  1  0  0  0  0
 13 14  2  0  0  0  0
 14 15  1  0  0  0  0
 14 33  1  0  0  0  0
 15 16  1  0  0  0  0
 16 17  1  0  0  0  0
 16 34  1  0  0  0  0
 16 35  1  0  0  0  0
 17 22  1  0  0  0  0
 17 18  1  0  0  0  0
 17 19  1  0  0  0  0
 18 36  1  0  0  0  0
 19 20  1  0  0  0  0
 19 37  1  0  0  0  0
 19 38  1  0  0  0  0
 20 21  1  0  0  0  0
 20 39  1  0  0  0  0
 20 40  1  0  0  0  0
 21 22  1  0  0  0  0
 22 41  1  0  0  0  0
 22 42  1  0  0  0  0
 23 25  1  0  0  0  0
 23 24  1  0  0  0  0
 23 43  1  0  0  0  0
 24 25  1  0  0  0  0
 24 44  1  0  0  0  0
 24 45  1  0  0  0  0
 25 46  1  0  0  0  0
 25 47  1  0  0  0  0
M  END
> <s_m_source_file>
AV-unprocessed.smi

> <i_m_source_file_index>
223

> <i_lp_mmshare_version>
43012

> <i_f3d_flags>
0

> <s_epik_input>
TiNDW0NAQEhdKFtDSDNdKVtDSDJdTihbQ0hdMVtDSDJdW0NIMl0xKWMobltjSF1uMiljKGMyMyluW2NIXW4zW0NIMl1bQ0BAXTQoW09IXSlbQ0gyXVtDSDJdT1tDSDJdNA==

> <s_epik_cmdline>
J2VwaWtfcHl0aG9uJywgJy1waCcsICc3LjAnLCAnLXRuJywgJzgnLCAnLW1hJywgJzIwMCcsICctbWV0YWxfYmluZGluZycsICctaW1hZScsICc8aW5maWxlLm1hZT4nLCAnLW9tYWUnLCAnPG91dGZpbGUubWFlPic=

> <r_lp_tautomer_probability>
1

> <r_epik_Ionization_Penalty>
0.000756152

> <r_epik_Ionization_Penalty_Charging>
0

> <r_epik_Ionization_Penalty_Neutral>
0.000756152

> <r_epik_State_Penalty>
0.00038036

> <r_epik_Charging_Adjusted_Penalty>
0.00038036

> <i_epik_Tot_Q>
0

> <i_epik_Tot_abs_Q>
0

> <r_epik_Metal_State_Penalty>
-0

> <b_epik_Metal_Only>
0

> <s_lp_Force_Field>
OPLS_2005

> <r_lp_Energy>
38.8251

> <b_lp_Chiralities_Consistent>
1

> <s_lp_Variant>
AV-unprocessed.smi:223-3

> <Gold.Version>
5.8.1

> <Gold.Id.Protein>
6NUR|6NUR_protein|mol2

> <Gold.PLP.Fitness>
42.0658

> <Gold.PLP.PLP>
-30.5423

> <Gold.PLP.part.hbond>
-4.0000

> <Gold.PLP.part.metal>
0.0000

> <Gold.PLP.part.buried>
0.3475

> <Gold.PLP.part.nonpolar>
-27.9252

> <Gold.PLP.part.repulsive>
0.6669

> <Gold.PLP.ligand.clash>
0.0000

> <Gold.PLP.ligand.torsion>
1.3291

> <Gold.PLP.Chemscore.Hbond>
2.4368

> <Gold.PLP.Chemscore.CHOScore>
1.8335

> <Gold.PLP.Chemscore.Metal>
0.0000

> <Gold.Chemscore.Hbonds>
donor molecule, donor type, donor heavy atom, donor atom, acceptor molecule, acceptor atom, score
      L1  H    18    36       P1  7921  1.00
      P1  H  7989  7998       L1     4  0.43
      P1  H  7997  8008       L1     4  0.99
      L1  C    14    33       P1 10171  1.00
      L1  C    14    33       P1 10175  0.84

> <Gold.PLP.Chemscore.Internal.Correction>
1.3709

> <Gold.Rescore>
     Score         DG    S(hbond)    S(metal)    S(lipo)     H(rot)  DE(clash)    DE(int)     intcor
      9.78     -13.50       2.21        0.00      64.87       2.72       0.44       3.27       ----

> <Gold.Chemscore.Fitness>
9.7836

> <Gold.Chemscore.DG>
-13.4973

> <Gold.Chemscore.ZeroCoef>
-5.4800

> <Gold.Chemscore.Hbond>
2.2107

> <Gold.Chemscore.Metal>
0.0000

> <Gold.Chemscore.Lipo>
64.8655

> <Gold.Chemscore.Internal_Hbond>
0.0000

> <Gold.Chemscore.DEClash>
0.4388

> <Gold.Chemscore.DEInternal>
3.2748

> <Gold.Chemscore.Rot>
2.7171

> <Gold.Chemscore.Internal.Correction>
   9.000000E+99

> <Gold.Chemscore.Hbonds>
donor molecule, donor type, donor heavy atom, donor atom, acceptor molecule, acceptor atom, score
      L1  H    18    36       P1  7921  0.99
      P1  H  7989  7998       L1     4  0.27
      P1  H  7997  8008       L1     4  0.41

> <Gold.Chemscore.Hbond.Weighted>
-7.3838

> <Gold.Chemscore.Metal.Weighted>
-0.0000

> <Gold.Chemscore.Lipo.Weighted>
-7.5893

> <Gold.Chemscore.Internal_Hbond.Weighted>
0.0000

> <Gold.Chemscore.DEClash.Weighted>
0.4388

> <Gold.Chemscore.DEInternal.Weighted>
3.2748

> <Gold.Chemscore.Rot.Weighted>
6.9558

> <Gold.Chemscore.Internal.Correction.Weighted>
   9.000000E+99

> <Gold.Protein.RotatedTorsions>
[ 6907 6896 6895 6894 ] final  119.12 input  -60.11 | X-H torsion
[ 7974 7965 7964 7962 ] final -111.46 input  175.53 | X-H torsion
[ 8008 7997 7996 7995 ] final   -8.09 input   59.86 | X-H torsion
[ 10167 10162 10161 10158 ] final  -94.13 input  -65.29 | X-H torsion
[ 10718 10713 10712 10709 ] final   -1.71 input   66.30 | X-H torsion
[ 10763 10752 10751 10750 ] final  143.84 input  -60.55 | X-H torsion
[ 11005 11000 10999 10996 ] final   93.45 input  -57.11 | X-H torsion

> <Gold.Protein.ActiveResidues>
 VAL166  LYS551  ARG553  GLY616  TRP617  ASP618  TYR619  PRO620  LYS621  CYS622 
 ASP623  PHE694  ASN695  SER759  ASP760  ASP761  ALA762  ILE779  LEU786  VAL792 
 PHE793  MET794  SER795  GLU796  ALA797  LYS798  CYS799  TRP800  GLU811  SER814 

> <Gold.Protein.RotatedAtoms>
  152.4495  133.7601  159.6741 H   0  0  0  0  0  0  0  0  0  0  0  0  # atno 6907 bound_to 6896
  150.8403  133.7937  159.3070 H   0  0  0  0  0  0  0  0  0  0  0  0  # atno 6908 bound_to 6896
  151.5564  135.1069  160.0014 H   0  0  0  0  0  0  0  0  0  0  0  0  # atno 6909 bound_to 6896
  145.1558  140.8853  143.3620 H   0  0  0  0  0  0  0  0  0  0  0  0  # atno 7974 bound_to 7965
  154.5775  140.2390  155.8102 H   0  0  0  0  0  0  0  0  0  0  0  0  # atno 8008 bound_to 7997
  156.2154  140.3014  155.9784 H   0  0  0  0  0  0  0  0  0  0  0  0  # atno 8009 bound_to 7997
  155.2601  140.0414  157.2987 H   0  0  0  0  0  0  0  0  0  0  0  0  # atno 8010 bound_to 7997
  140.3175  143.3068  152.0082 H   0  0  0  0  0  0  0  0  0  0  0  0  # atno 10167 bound_to 10162
  156.8016  130.5394  149.5721 H   0  0  0  0  0  0  0  0  0  0  0  0  # atno 10718 bound_to 10713
  153.9789  135.2943  155.3421 H   0  0  0  0  0  0  0  0  0  0  0  0  # atno 10763 bound_to 10752
  154.7280  135.5080  153.8921 H   0  0  0  0  0  0  0  0  0  0  0  0  # atno 10764 bound_to 10752
  153.0864  135.6694  154.0055 H   0  0  0  0  0  0  0  0  0  0  0  0  # atno 10765 bound_to 10752
  139.8810  134.8791  156.3720 H   0  0  0  0  0  0  0  0  0  0  0  0  # atno 11005 bound_to 11000
  145.0383  139.3282  143.5990 LP  0  0  0  0  0  0  0  0  0  0  0  0  # atno 17320 bound_to 7965
  146.3489  139.9746  142.8702 LP  0  0  0  0  0  0  0  0  0  0  0  0  # atno 17321 bound_to 7965
  139.4881  144.6337  151.7019 LP  0  0  0  0  0  0  0  0  0  0  0  0  # atno 17342 bound_to 10162
  140.5513  144.0421  150.6128 LP  0  0  0  0  0  0  0  0  0  0  0  0  # atno 17343 bound_to 10162
  156.1098  130.6032  151.0029 LP  0  0  0  0  0  0  0  0  0  0  0  0  # atno 17370 bound_to 10713
  157.6551  131.0890  150.7965 LP  0  0  0  0  0  0  0  0  0  0  0  0  # atno 17371 bound_to 10713
  140.9457  133.7484  156.0205 LP  0  0  0  0  0  0  0  0  0  0  0  0  # atno 17394 bound_to 11000
  140.8166  134.3338  157.5395 LP  0  0  0  0  0  0  0  0  0  0  0  0  # atno 17395 bound_to 11000

$$$$
