AV-unprocessed.smi:195|AV-procd|sdf|1524|dock9
  -GOLD-   2262019373D 1   1.00000     0.00000
 Structure written by MMmdl.
 45 48  0  0  0  0  0  0  0  0  1 V2000
  151.6315  139.8265  154.5484 N   0  0  0  0  0  0  0  0  0  0  0  0
  150.7300  139.9636  155.2604 C   0  0  0  0  0  0  0  0  0  0  0  0
  149.5824  140.1376  156.1649 C   0  0  0  0  0  0  0  0  0  0  0  0
  148.8972  141.4999  156.0237 C   0  0  0  0  0  0  0  0  0  0  0  0
  149.9339  142.4447  156.1870 O   0  0  0  0  0  0  0  0  0  0  0  0
  148.0085  141.7175  154.7955 C   0  0  0  0  0  0  0  0  0  0  0  0
  146.8517  141.4885  155.6578 N   0  0  0  0  0  0  0  0  0  0  0  0
  146.2827  140.1830  155.5222 C   0  0  0  0  0  0  0  0  0  0  0  0
  145.4201  139.6964  156.4553 N   0  0  0  0  0  0  0  0  0  0  0  0
  144.8803  138.4805  156.3330 C   0  0  0  0  0  0  0  0  0  0  0  0
  145.0543  137.5866  155.3596 N   0  0  0  0  0  0  0  0  0  0  0  0
  145.9006  138.0644  154.4045 C   0  0  0  0  0  0  0  0  0  0  0  0
  146.5424  139.3356  154.4065 C   0  0  0  0  0  0  0  0  0  0  0  0
  147.3169  139.4727  153.2604 N   0  0  0  0  0  0  0  0  0  0  0  0
  147.1491  138.3468  152.6229 C   0  0  0  0  0  0  0  0  0  0  0  0
  146.3305  137.4344  153.2494 N   0  0  0  0  0  0  0  0  0  0  0  0
  145.9710  136.1128  152.7636 C   0  0  0  0  0  0  0  0  0  0  0  0
  145.3535  136.1175  151.3460 C   0  0  2  0  0  0  0  0  0  0  0  0
  144.0892  136.7349  151.4799 O   0  0  0  0  0  0  0  0  0  0  0  0
  145.1158  134.7235  150.7197 C   0  0  2  0  0  0  0  0  0  0  0  0
  144.1181  133.8163  151.4434 C   0  0  0  0  0  0  0  0  0  0  0  0
  144.5379  132.4157  151.0316 C   0  0  0  0  0  0  0  0  0  0  0  0
  145.9764  132.5947  150.5435 C   0  0  0  0  0  0  0  0  0  0  0  0
  146.3000  133.9470  150.8351 O   0  0  0  0  0  0  0  0  0  0  0  0
  147.6404  141.7653  156.8592 C   0  0  0  0  0  0  0  0  0  0  0  0
  148.8815  139.3228  155.9810 H   0  0  0  0  0  0  0  0  0  0  0  0
  149.9578  139.9942  157.1778 H   0  0  0  0  0  0  0  0  0  0  0  0
  149.5691  143.2928  155.9841 H   0  0  0  0  0  0  0  0  0  0  0  0
  148.0342  142.7397  154.4152 H   0  0  0  0  0  0  0  0  0  0  0  0
  148.1609  140.9858  154.0012 H   0  0  0  0  0  0  0  0  0  0  0  0
  144.2141  138.1824  157.1292 H   0  0  0  0  0  0  0  0  0  0  0  0
  147.6273  138.1476  151.6746 H   0  0  0  0  0  0  0  0  0  0  0  0
  146.8478  135.4649  152.7936 H   0  0  0  0  0  0  0  0  0  0  0  0
  145.2583  135.6986  153.4784 H   0  0  0  0  0  0  0  0  0  0  0  0
  145.9592  136.7304  150.6776 H   0  0  0  0  0  0  0  0  0  0  0  0
  144.1182  137.5751  151.0483 H   0  0  0  0  0  0  0  0  0  0  0  0
  144.8342  134.8112  149.6682 H   0  0  0  0  0  0  0  0  0  0  0  0
  144.2249  133.9221  152.5240 H   0  0  0  0  0  0  0  0  0  0  0  0
  143.0828  134.0291  151.1794 H   0  0  0  0  0  0  0  0  0  0  0  0
  144.4712  131.7197  151.8685 H   0  0  0  0  0  0  0  0  0  0  0  0
  143.9079  132.0364  150.2260 H   0  0  0  0  0  0  0  0  0  0  0  0
  146.6726  131.9145  151.0346 H   0  0  0  0  0  0  0  0  0  0  0  0
  146.0411  132.4313  149.4669 H   0  0  0  0  0  0  0  0  0  0  0  0
  147.5036  141.0977  157.7097 H   0  0  0  0  0  0  0  0  0  0  0  0
  147.5444  142.8087  157.1629 H   0  0  0  0  0  0  0  0  0  0  0  0
  1  2  3  0  0  0  0
  2  3  1  0  0  0  0
  3  4  1  0  0  0  0
  3 26  1  0  0  0  0
  3 27  1  0  0  0  0
  4 25  1  0  0  0  0
  4  5  1  0  0  0  0
  4  6  1  0  0  0  0
  5 28  1  0  0  0  0
  6  7  1  0  0  0  0
  6 29  1  0  0  0  0
  6 30  1  0  0  0  0
  7  8  1  0  0  0  0
  7 25  1  0  0  0  0
  8 13  1  0  0  0  0
  8  9  2  0  0  0  0
  9 10  1  0  0  0  0
 10 11  2  0  0  0  0
 10 31  1  0  0  0  0
 11 12  1  0  0  0  0
 12 16  1  0  0  0  0
 12 13  2  0  0  0  0
 13 14  1  0  0  0  0
 14 15  2  0  0  0  0
 15 16  1  0  0  0  0
 15 32  1  0  0  0  0
 16 17  1  0  0  0  0
 17 18  1  0  0  0  0
 17 33  1  0  0  0  0
 17 34  1  0  0  0  0
 18 19  1  0  0  0  0
 18 20  1  0  0  0  0
 18 35  1  0  0  0  0
 19 36  1  0  0  0  0
 20 24  1  0  0  0  0
 20 21  1  0  0  0  0
 20 37  1  0  0  0  0
 21 22  1  0  0  0  0
 21 38  1  0  0  0  0
 21 39  1  0  0  0  0
 22 23  1  0  0  0  0
 22 40  1  0  0  0  0
 22 41  1  0  0  0  0
 23 24  1  0  0  0  0
 23 42  1  0  0  0  0
 23 43  1  0  0  0  0
 25 44  1  0  0  0  0
 25 45  1  0  0  0  0
M  END
> <s_m_source_file>
AV-unprocessed.smi

> <i_m_source_file_index>
195

> <i_lp_mmshare_version>
43012

> <i_f3d_flags>
0

> <s_epik_input>
TiNDW0NIMl1DMShbT0hdKVtDSDJdTihbQ0gyXTEpYyhuW2NIXW4yKWMoYzIzKW5bY0hdbjNbQ0gyXVtDQEhdKFtPSF0pW0NAQEhdNFtDSDJdW0NIMl1bQ0gyXU80

> <s_epik_cmdline>
J2VwaWtfcHl0aG9uJywgJy1waCcsICc3LjAnLCAnLXRuJywgJzgnLCAnLW1hJywgJzIwMCcsICctbWV0YWxfYmluZGluZycsICctaW1hZScsICc8aW5maWxlLm1hZT4nLCAnLW9tYWUnLCAnPG91dGZpbGUubWFlPic=

> <r_lp_tautomer_probability>
1

> <r_epik_Ionization_Penalty>
0.00307146

> <r_epik_Ionization_Penalty_Charging>
0

> <r_epik_Ionization_Penalty_Neutral>
0.00307146

> <r_epik_State_Penalty>
0.0020279

> <r_epik_Charging_Adjusted_Penalty>
0.0020279

> <i_epik_Tot_Q>
0

> <i_epik_Tot_abs_Q>
0

> <r_epik_Metal_State_Penalty>
-0

> <b_epik_Metal_Only>
0

> <s_lp_Force_Field>
OPLS_2005

> <r_lp_Energy>
46.5325

> <b_lp_Chiralities_Consistent>
1

> <s_lp_Variant>
AV-unprocessed.smi:195-1

> <Gold.Version>
5.8.1

> <Gold.Id.Protein>
6NUR|6NUR_protein|mol2

> <Gold.PLP.Fitness>
40.5710

> <Gold.PLP.PLP>
-29.0309

> <Gold.PLP.part.hbond>
-2.5310

> <Gold.PLP.part.metal>
0.0000

> <Gold.PLP.part.buried>
-1.3973

> <Gold.PLP.part.nonpolar>
-24.3291

> <Gold.PLP.part.repulsive>
0.8569

> <Gold.PLP.ligand.clash>
0.0000

> <Gold.PLP.ligand.torsion>
0.4214

> <Gold.PLP.Chemscore.Hbond>
2.9913

> <Gold.PLP.Chemscore.CHOScore>
1.0133

> <Gold.PLP.Chemscore.Metal>
0.0000

> <Gold.Chemscore.Hbonds>
donor molecule, donor type, donor heavy atom, donor atom, acceptor molecule, acceptor atom, score
      L1  H     5    28       P1  8028  1.00
      L1  H    19    36       P1 10171  1.00
      P1  H  7989  7998       L1     1  0.84
      L1  C    15    32       P1  7948  0.62
      L1  C    15    32       P1  7957  0.30

> <Gold.PLP.Chemscore.Internal.Correction>
0.3693

> <Gold.Rescore>
     Score         DG    S(hbond)    S(metal)    S(lipo)     H(rot)  DE(clash)    DE(int)     intcor
     10.03     -11.96       2.91        0.00      53.91       3.72       0.04       1.89       ----

> <Gold.Chemscore.Fitness>
10.0306

> <Gold.Chemscore.DG>
-11.9641

> <Gold.Chemscore.ZeroCoef>
-5.4800

> <Gold.Chemscore.Hbond>
2.9050

> <Gold.Chemscore.Metal>
0.0000

> <Gold.Chemscore.Lipo>
53.9055

> <Gold.Chemscore.Internal_Hbond>
0.0000

> <Gold.Chemscore.DEClash>
0.0444

> <Gold.Chemscore.DEInternal>
1.8891

> <Gold.Chemscore.Rot>
3.7210

> <Gold.Chemscore.Internal.Correction>
   9.000000E+99

> <Gold.Chemscore.Hbonds>
donor molecule, donor type, donor heavy atom, donor atom, acceptor molecule, acceptor atom, score
      L1  H     5    28       P1  8028  0.99
      L1  H    19    36       P1 10171  0.97
      P1  H  7989  7998       L1     1  0.68

> <Gold.Chemscore.Hbond.Weighted>
-9.7028

> <Gold.Chemscore.Metal.Weighted>
-0.0000

> <Gold.Chemscore.Lipo.Weighted>
-6.3069

> <Gold.Chemscore.Internal_Hbond.Weighted>
0.0000

> <Gold.Chemscore.DEClash.Weighted>
0.0444

> <Gold.Chemscore.DEInternal.Weighted>
1.8891

> <Gold.Chemscore.Rot.Weighted>
9.5256

> <Gold.Chemscore.Internal.Correction.Weighted>
   9.000000E+99

> <Gold.Protein.RotatedTorsions>
[ 6907 6896 6895 6894 ] final  -69.01 input  -60.11 | X-H torsion
[ 7974 7965 7964 7962 ] final   22.81 input  175.53 | X-H torsion
[ 8008 7997 7996 7995 ] final  134.42 input   59.86 | X-H torsion
[ 10167 10162 10161 10158 ] final  -69.65 input  -65.29 | X-H torsion
[ 10718 10713 10712 10709 ] final -122.16 input   66.30 | X-H torsion
[ 10763 10752 10751 10750 ] final   41.14 input  -60.55 | X-H torsion
[ 11005 11000 10999 10996 ] final  164.62 input  -57.11 | X-H torsion

> <Gold.Protein.ActiveResidues>
 VAL166  LYS551  ARG553  GLY616  TRP617  ASP618  TYR619  PRO620  LYS621  CYS622 
 ASP623  PHE694  ASN695  SER759  ASP760  ASP761  ALA762  ILE779  LEU786  VAL792 
 PHE793  MET794  SER795  GLU796  ALA797  LYS798  CYS799  TRP800  GLU811  SER814 

> <Gold.Protein.RotatedAtoms>
  150.7327  134.5657  159.5864 H   0  0  0  0  0  0  0  0  0  0  0  0  # atno 6907 bound_to 6896
  152.3109  134.7495  160.0345 H   0  0  0  0  0  0  0  0  0  0  0  0  # atno 6908 bound_to 6896
  151.8043  133.3338  159.3573 H   0  0  0  0  0  0  0  0  0  0  0  0  # atno 6909 bound_to 6896
  146.2012  139.7833  142.8760 H   0  0  0  0  0  0  0  0  0  0  0  0  # atno 7974 bound_to 7965
  156.2999  140.2496  156.3415 H   0  0  0  0  0  0  0  0  0  0  0  0  # atno 8008 bound_to 7997
  154.9051  140.0405  157.1934 H   0  0  0  0  0  0  0  0  0  0  0  0  # atno 8009 bound_to 7997
  154.8462  140.2898  155.5632 H   0  0  0  0  0  0  0  0  0  0  0  0  # atno 8010 bound_to 7997
  140.5414  143.2315  151.7082 H   0  0  0  0  0  0  0  0  0  0  0  0  # atno 10167 bound_to 10162
  156.1395  130.6456  150.9749 H   0  0  0  0  0  0  0  0  0  0  0  0  # atno 10718 bound_to 10713
  152.9916  135.6170  154.2740 H   0  0  0  0  0  0  0  0  0  0  0  0  # atno 10763 bound_to 10752
  154.2472  135.2786  155.2832 H   0  0  0  0  0  0  0  0  0  0  0  0  # atno 10764 bound_to 10752
  154.5319  135.5785  153.6824 H   0  0  0  0  0  0  0  0  0  0  0  0  # atno 10765 bound_to 10752
  140.2478  134.8001  157.3472 H   0  0  0  0  0  0  0  0  0  0  0  0  # atno 11005 bound_to 11000
  145.3476  141.0301  143.3357 LP  0  0  0  0  0  0  0  0  0  0  0  0  # atno 17320 bound_to 7965
  144.8688  139.5068  143.6777 LP  0  0  0  0  0  0  0  0  0  0  0  0  # atno 17321 bound_to 7965
  139.4990  144.3963  152.0228 LP  0  0  0  0  0  0  0  0  0  0  0  0  # atno 17342 bound_to 10162
  140.3072  144.3579  150.6043 LP  0  0  0  0  0  0  0  0  0  0  0  0  # atno 17343 bound_to 10162
  157.6563  131.0889  150.7939 LP  0  0  0  0  0  0  0  0  0  0  0  0  # atno 17370 bound_to 10713
  156.8016  130.4923  149.5369 LP  0  0  0  0  0  0  0  0  0  0  0  0  # atno 17371 bound_to 10713
  140.1589  134.4754  155.7909 LP  0  0  0  0  0  0  0  0  0  0  0  0  # atno 17394 bound_to 11000
  141.2204  133.6893  156.7509 LP  0  0  0  0  0  0  0  0  0  0  0  0  # atno 17395 bound_to 11000

$$$$
