AV-unprocessed.smi:2451|AV-procd|sdf|9680|dock4
  -GOLD-   2272013313D 1   1.00000     0.00000
 Structure written by MMmdl.
 37 38  0  0  0  0  0  0  0  0  2 V2000
  150.0069  144.8820  159.6704 C   0  0  0  0  0  0  0  0  0  0  0  0
  151.5504  144.9562  159.5926 C   0  0  1  0  0  0  0  0  0  0  0  0
  152.1774  145.1212  160.9983 C   0  0  0  0  0  0  0  0  0  0  0  0
  152.1768  143.7762  161.7524 C   0  0  0  0  0  0  0  0  0  0  0  0
  152.8749  142.6526  160.9518 C   0  0  0  0  0  0  0  0  0  0  0  0
  152.2872  142.4375  159.5342 C   0  0  2  0  0  0  0  0  0  0  0  0
  153.1170  141.4830  158.8116 N   0  5  0  0  0  0  0  0  0  0  0  0
  152.4544  140.1221  158.2278 S   0  0  0  0  0  0  0  0  0  0  0  0
  153.4590  139.1252  157.8207 O   0  0  0  0  0  0  0  0  0  0  0  0
  151.3421  139.6498  159.0683 O   0  0  0  0  0  0  0  0  0  0  0  0
  151.6782  140.7534  156.6746 C   0  0  0  0  0  0  0  0  0  0  0  0
  151.1229  139.6173  155.8583 C   0  0  0  0  0  0  0  0  0  0  0  0
  151.7014  138.9710  154.7303 C   0  0  0  0  0  0  0  0  0  0  0  0
  150.7785  138.0229  154.3962 C   0  0  0  0  0  0  0  0  0  0  0  0
  149.7124  138.0820  155.2335 O   0  0  0  0  0  0  0  0  0  0  0  0
  149.9393  139.1052  156.1611 N   0  0  0  0  0  0  0  0  0  0  0  0
  152.2330  143.8050  158.7750 C   0  0  1  0  0  0  0  0  0  0  0  0
  151.6380  143.6989  157.3499 C   0  0  0  0  0  0  0  0  0  0  0  0
  149.6594  143.9706  160.1564 H   0  0  0  0  0  0  0  0  0  0  0  0
  149.5517  144.9229  158.6813 H   0  0  0  0  0  0  0  0  0  0  0  0
  149.6069  145.7238  160.2358 H   0  0  0  0  0  0  0  0  0  0  0  0
  151.7653  145.8834  159.0591 H   0  0  0  0  0  0  0  0  0  0  0  0
  153.2050  145.4723  160.8959 H   0  0  0  0  0  0  0  0  0  0  0  0
  151.6494  145.8823  161.5736 H   0  0  0  0  0  0  0  0  0  0  0  0
  152.6832  143.9021  162.7098 H   0  0  0  0  0  0  0  0  0  0  0  0
  151.1534  143.4866  161.9971 H   0  0  0  0  0  0  0  0  0  0  0  0
  153.9361  142.8947  160.8727 H   0  0  0  0  0  0  0  0  0  0  0  0
  152.8208  141.7232  161.5196 H   0  0  0  0  0  0  0  0  0  0  0  0
  151.2627  142.0783  159.6410 H   0  0  0  0  0  0  0  0  0  0  0  0
  150.8848  141.4426  156.9638 H   0  0  0  0  0  0  0  0  0  0  0  0
  152.4191  141.3264  156.1180 H   0  0  0  0  0  0  0  0  0  0  0  0
  152.6494  139.1674  154.2517 H   0  0  0  0  0  0  0  0  0  0  0  0
  150.7356  137.2682  153.6252 H   0  0  0  0  0  0  0  0  0  0  0  0
  153.2693  144.1213  158.6415 H   0  0  0  0  0  0  0  0  0  0  0  0
  150.6209  143.3039  157.3493 H   0  0  0  0  0  0  0  0  0  0  0  0
  152.2365  143.0591  156.6992 H   0  0  0  0  0  0  0  0  0  0  0  0
  151.6053  144.6791  156.8740 H   0  0  0  0  0  0  0  0  0  0  0  0
  1  2  1  0  0  0  0
  1 19  1  0  0  0  0
  1 20  1  0  0  0  0
  1 21  1  0  0  0  0
  2 17  1  0  0  0  0
  2  3  1  0  0  0  0
  2 22  1  0  0  0  0
  3  4  1  0  0  0  0
  3 23  1  0  0  0  0
  3 24  1  0  0  0  0
  4  5  1  0  0  0  0
  4 25  1  0  0  0  0
  4 26  1  0  0  0  0
  5  6  1  0  0  0  0
  5 27  1  0  0  0  0
  5 28  1  0  0  0  0
  6  7  1  0  0  0  0
  6 17  1  0  0  0  0
  6 29  1  0  0  0  0
  7  8  1  0  0  0  0
  8  9  2  0  0  0  0
  8 10  2  0  0  0  0
  8 11  1  0  0  0  0
 11 12  1  0  0  0  0
 11 30  1  0  0  0  0
 11 31  1  0  0  0  0
 12 16  2  0  0  0  0
 12 13  1  0  0  0  0
 13 14  2  0  0  0  0
 13 32  1  0  0  0  0
 14 15  1  0  0  0  0
 14 33  1  0  0  0  0
 15 16  1  0  0  0  0
 17 18  1  0  0  0  0
 17 34  1  0  0  0  0
 18 35  1  0  0  0  0
 18 36  1  0  0  0  0
 18 37  1  0  0  0  0
M  CHG  1   7  -1
M  END
> <s_m_source_file>
AV-unprocessed.smi

> <i_m_source_file_index>
2451

> <i_lp_mmshare_version>
43012

> <i_f3d_flags>
0

> <s_epik_input>
W0NIM11bQ0BASF0xW0NIMl1bQ0gyXVtDSDJdW0NASF0oW0NASF0xW0NIM10pW05IXVMoPU8pKD1PKVtDSDJdYzJbY0hdW2NIXW9uMg==

> <s_epik_cmdline>
J2VwaWtfcHl0aG9uJywgJy1waCcsICc3LjAnLCAnLXRuJywgJzgnLCAnLW1hJywgJzIwMCcsICctbWV0YWxfYmluZGluZycsICctaW1hZScsICc8aW5maWxlLm1hZT4nLCAnLW9tYWUnLCAnPG91dGZpbGUubWFlPic=

> <r_lp_tautomer_probability>
1

> <r_epik_Ionization_Penalty>
5.22693

> <r_epik_Ionization_Penalty_Charging>
5.22693

> <r_epik_Ionization_Penalty_Neutral>
2.67702e-10

> <r_epik_State_Penalty>
5.22685

> <r_epik_Charging_Adjusted_Penalty>
10.4538

> <i_epik_Tot_Q>
-1

> <i_epik_Tot_abs_Q>
1

> <r_epik_Metal_State_Penalty>
1.28716

> <b_epik_Metal_Only>
1

> <s_lp_Force_Field>
OPLS_2005

> <r_lp_Energy>
15.3102

> <b_lp_Chiralities_Consistent>
1

> <s_lp_Variant>
AV-unprocessed.smi:2451-12

> <Gold.Version>
5.8.1

> <Gold.Id.Protein>
6NUR|6NUR_protein|mol2

> <Gold.PLP.Fitness>
44.9287

> <Gold.PLP.PLP>
-39.2481

> <Gold.PLP.part.hbond>
-1.0074

> <Gold.PLP.part.metal>
0.0000

> <Gold.PLP.part.buried>
-2.2973

> <Gold.PLP.part.nonpolar>
-35.4206

> <Gold.PLP.part.repulsive>
0.1030

> <Gold.PLP.ligand.clash>
0.0000

> <Gold.PLP.ligand.torsion>
0.8705

> <Gold.PLP.Chemscore.Hbond>
1.0000

> <Gold.PLP.Chemscore.CHOScore>
1.1411

> <Gold.PLP.Chemscore.Metal>
0.0000

> <Gold.Chemscore.Hbonds>
donor molecule, donor type, donor heavy atom, donor atom, acceptor molecule, acceptor atom, score
      P1  H  7997  8008       L1     9  1.00
      L1  C    14    33       P1  7948  0.33
      L1  C    14    33       P1  7949  0.79

> <Gold.PLP.Chemscore.Internal.Correction>
0.9983

> <Gold.Rescore>
     Score         DG    S(hbond)    S(metal)    S(lipo)     H(rot)  DE(clash)    DE(int)     intcor
     16.77     -17.97       0.81        0.00     114.17       1.40       0.56       0.65       ----

> <Gold.Chemscore.Fitness>
16.7652

> <Gold.Chemscore.DG>
-17.9748

> <Gold.Chemscore.ZeroCoef>
-5.4800

> <Gold.Chemscore.Hbond>
0.8134

> <Gold.Chemscore.Metal>
0.0000

> <Gold.Chemscore.Lipo>
114.1730

> <Gold.Chemscore.Internal_Hbond>
0.0000

> <Gold.Chemscore.DEClash>
0.5575

> <Gold.Chemscore.DEInternal>
0.6520

> <Gold.Chemscore.Rot>
1.3986

> <Gold.Chemscore.Internal.Correction>
   9.000000E+99

> <Gold.Chemscore.Hbonds>
donor molecule, donor type, donor heavy atom, donor atom, acceptor molecule, acceptor atom, score
      P1  H  7997  8008       L1     9  0.45

> <Gold.Chemscore.Hbond.Weighted>
-2.7169

> <Gold.Chemscore.Metal.Weighted>
-0.0000

> <Gold.Chemscore.Lipo.Weighted>
-13.3582

> <Gold.Chemscore.Internal_Hbond.Weighted>
0.0000

> <Gold.Chemscore.DEClash.Weighted>
0.5575

> <Gold.Chemscore.DEInternal.Weighted>
0.6520

> <Gold.Chemscore.Rot.Weighted>
3.5804

> <Gold.Chemscore.Internal.Correction.Weighted>
   9.000000E+99

> <Gold.Protein.RotatedTorsions>
[ 6907 6896 6895 6894 ] final   61.86 input  -60.11 | X-H torsion
[ 7974 7965 7964 7962 ] final  155.82 input  175.53 | X-H torsion
[ 8008 7997 7996 7995 ] final  -90.41 input   59.86 | X-H torsion
[ 10167 10162 10161 10158 ] final  103.68 input  -65.29 | X-H torsion
[ 10718 10713 10712 10709 ] final  -66.33 input   66.30 | X-H torsion
[ 10763 10752 10751 10750 ] final   98.72 input  -60.55 | X-H torsion
[ 11005 11000 10999 10996 ] final   88.44 input  -57.11 | X-H torsion

> <Gold.Protein.ActiveResidues>
 VAL166  LYS551  ARG553  GLY616  TRP617  ASP618  TYR619  PRO620  LYS621  CYS622 
 ASP623  PHE694  ASN695  SER759  ASP760  ASP761  ALA762  ILE779  LEU786  VAL792 
 PHE793  MET794  SER795  GLU796  ALA797  LYS798  CYS799  TRP800  GLU811  SER814 

> <Gold.Protein.RotatedAtoms>
  152.4124  134.6101  160.0023 H   0  0  0  0  0  0  0  0  0  0  0  0  # atno 6907 bound_to 6896
  151.6275  133.3329  159.3109 H   0  0  0  0  0  0  0  0  0  0  0  0  # atno 6908 bound_to 6896
  150.8014  134.7150  159.6670 H   0  0  0  0  0  0  0  0  0  0  0  0  # atno 6909 bound_to 6896
  144.8001  139.7120  143.6185 H   0  0  0  0  0  0  0  0  0  0  0  0  # atno 7974 bound_to 7965
  154.6983  140.0531  157.0432 H   0  0  0  0  0  0  0  0  0  0  0  0  # atno 8008 bound_to 7997
  155.0721  140.3200  155.4608 H   0  0  0  0  0  0  0  0  0  0  0  0  # atno 8009 bound_to 7997
  156.2751  140.2080  156.5848 H   0  0  0  0  0  0  0  0  0  0  0  0  # atno 8010 bound_to 7997
  139.7242  144.7051  151.0823 H   0  0  0  0  0  0  0  0  0  0  0  0  # atno 10167 bound_to 10162
  156.0619  130.4260  150.1693 H   0  0  0  0  0  0  0  0  0  0  0  0  # atno 10718 bound_to 10713
  153.2925  135.4138  155.1180 H   0  0  0  0  0  0  0  0  0  0  0  0  # atno 10763 bound_to 10752
  154.8525  135.3522  154.5961 H   0  0  0  0  0  0  0  0  0  0  0  0  # atno 10764 bound_to 10752
  153.6384  135.7058  153.5308 H   0  0  0  0  0  0  0  0  0  0  0  0  # atno 10765 bound_to 10752
  139.8896  134.8488  156.3001 H   0  0  0  0  0  0  0  0  0  0  0  0  # atno 11005 bound_to 11000
  146.2280  139.5760  142.9574 LP  0  0  0  0  0  0  0  0  0  0  0  0  # atno 17320 bound_to 7965
  145.5574  141.0407  143.2245 LP  0  0  0  0  0  0  0  0  0  0  0  0  # atno 17321 bound_to 7965
  140.7759  143.5126  150.9634 LP  0  0  0  0  0  0  0  0  0  0  0  0  # atno 17342 bound_to 10162
  139.8813  143.7068  152.3156 LP  0  0  0  0  0  0  0  0  0  0  0  0  # atno 17343 bound_to 10162
  156.9760  130.9849  151.3448 LP  0  0  0  0  0  0  0  0  0  0  0  0  # atno 17370 bound_to 10713
  157.5633  130.8260  149.8294 LP  0  0  0  0  0  0  0  0  0  0  0  0  # atno 17371 bound_to 10713
  140.9919  133.7204  156.0826 LP  0  0  0  0  0  0  0  0  0  0  0  0  # atno 17394 bound_to 11000
  140.7614  134.3935  157.5525 LP  0  0  0  0  0  0  0  0  0  0  0  0  # atno 17395 bound_to 11000

$$$$
