#       Name:                AV-unprocessed.smi:2413
#       Creating user name   scv26
#       Creation time:       Fri Mar 27 13:16:52 2020


#       File generated by GOLD software.
#

@<TRIPOS>MOLECULE
AV-unprocessed.smi:2413
    52    53     1
SMALL
NO_CHARGES


@<TRIPOS>ATOM
      1 ****        -4.7762   5.2689   0.2825 C.3            1 S1                 0.0000
      2 ****        -4.3832   3.8154   0.0409 C.2            1 S1                 0.0000
      3 ****        -4.7294   2.9412   0.8349 O.2            1 S1                 0.0000
      4 ****        -3.6586   3.5719  -1.0612 N.am           1 S1                 0.0000
      5 ****        -3.1687   2.2596  -1.4688 C.3            1 S1                 0.0000
      6 ****        -1.8923   1.8669  -0.7056 C.3            1 S1                 0.0000
      7 ****        -1.4262   0.4434  -1.0664 C.3            1 S1                 0.0000
      8 ****        -0.1496   0.1368  -0.4258 N.3            1 S1                 0.0000
      9 ****         0.2859  -1.2080  -0.3966 C.ar           1 S1                 0.0000
     10 ****        -0.4541  -2.2682  -0.9767 C.ar           1 S1                 0.0000
     11 ****         0.0853  -3.5629  -0.8536 C.ar           1 S1                 0.0000
     12 ****         1.2534  -3.7913  -0.2201 N.ar           1 S1                 0.0000
     13 ****         1.9079  -2.7295   0.2646 C.ar           1 S1                 0.0000
     14 ****         3.1607  -3.0005   1.1153 C.3            1 S1                 0.0000
     15 ****         4.1472  -1.8106   1.0468 C.3            1 S1                 0.0000
     16 ****         3.9365  -4.2306   0.5887 C.3            1 S1                 0.0000
     17 ****         2.7441  -3.2413   2.5778 C.3            1 S1                 0.0000
     18 ****         1.4564  -1.4695   0.2331 N.ar           1 S1                 0.0000
     19 ****         0.8789   1.1591  -0.6202 C.3            1 S1                 0.0000
     20 ****         0.3254   2.5553  -0.2928 C.3            1 S1                 0.0000
     21 ****        -0.8603   2.7897  -1.0430 O.3            1 S1                 0.0000
     22 ****        -3.9025   5.9184   0.2197 H              1 S1                 0.0000
     23 ****        -5.2215   5.3913   1.2704 H              1 S1                 0.0000
     24 ****        -5.5028   5.5933  -0.4628 H              1 S1                 0.0000
     25 ****        -3.4142   4.3531  -1.6521 H              1 S1                 0.0000
     26 ****        -3.9485   1.5118  -1.3145 H              1 S1                 0.0000
     27 ****        -2.9719   2.2829  -2.5411 H              1 S1                 0.0000
     28 ****        -2.0870   1.9173   0.3677 H              1 S1                 0.0000
     29 ****        -2.1916  -0.2603  -0.7387 H              1 S1                 0.0000
     30 ****        -1.3195   0.3387  -2.1470 H              1 S1                 0.0000
     31 ****        -1.3896  -2.1254  -1.4950 H              1 S1                 0.0000
     32 ****        -0.4277  -4.4214  -1.2610 H              1 S1                 0.0000
     33 ****         5.0578  -2.0162   1.6108 H              1 S1                 0.0000
     34 ****         3.7180  -0.8994   1.4654 H              1 S1                 0.0000
     35 ****         4.4401  -1.5956   0.0184 H              1 S1                 0.0000
     36 ****         4.2237  -4.1019  -0.4556 H              1 S1                 0.0000
     37 ****         3.3481  -5.1461   0.6598 H              1 S1                 0.0000
     38 ****         4.8495  -4.3993   1.1609 H              1 S1                 0.0000
     39 ****         3.6093  -3.4368   3.2121 H              1 S1                 0.0000
     40 ****         2.0739  -4.0973   2.6624 H              1 S1                 0.0000
     41 ****         2.2238  -2.3755   2.9888 H              1 S1                 0.0000
     42 ****         1.7517   0.9788   0.0072 H              1 S1                 0.0000
     43 ****         1.2171   1.1242  -1.6565 H              1 S1                 0.0000
     44 ****         0.1208   2.6530   0.7747 H              1 S1                 0.0000
     45 ****         1.0617   3.3184  -0.5456 H              1 S1                 0.0000
     46 ****        -5.2698   3.1832   1.6407 LP             1 S1                 0.0000
     47 ****        -4.4704   1.9887   0.6741 LP             1 S1                 0.0000
     48 ****        -0.3905   0.2115   0.5418 LP             1 S1                 0.0000
     49 ****         1.6162  -4.7174  -0.1166 LP             1 S1                 0.0000
     50 ****         1.9750  -0.7331   0.6675 LP             1 S1                 0.0000
     51 ****        -1.1827   3.7178  -0.8569 LP             1 S1                 0.0000
     52 ****        -0.6505   2.6986  -2.0165 LP             1 S1                 0.0000
@<TRIPOS>BOND
    1    1    2 1     
    2    1   22 1     
    3    1   23 1     
    4    1   24 1     
    5    2    3 2     
    6    2    4 am    
    7    4    5 1     
    8    4   25 1     
    9    5    6 1     
   10    5   26 1     
   11    5   27 1     
   12    6   21 1     
   13    6    7 1     
   14    6   28 1     
   15    7    8 1     
   16    7   29 1     
   17    7   30 1     
   18    8    9 1     
   19    8   19 1     
   20    9   18 ar    
   21    9   10 ar    
   22   10   11 ar    
   23   10   31 1     
   24   11   12 ar    
   25   11   32 1     
   26   12   13 ar    
   27   13   14 1     
   28   13   18 ar    
   29   14   15 1     
   30   14   16 1     
   31   14   17 1     
   32   15   33 1     
   33   15   34 1     
   34   15   35 1     
   35   16   36 1     
   36   16   37 1     
   37   16   38 1     
   38   17   39 1     
   39   17   40 1     
   40   17   41 1     
   41   19   20 1     
   42   19   42 1     
   43   19   43 1     
   44   20   21 1     
   45   20   44 1     
   46   20   45 1     
   47    3   46 1     
   48    3   47 1     
   49    8   48 1     
   50   12   49 1     
   51   18   50 1     
   52   21   51 1     
   53   21   52 1     
@<TRIPOS>SUBSTRUCTURE
      1 S1             1
@<TRIPOS>SET
LONE_PAIRS      STATIC     ATOMS    <user>   **** ""
7 46 47 48 49 50 51 52
DONOR_HYDROGENS      STATIC     ATOMS    <user>   **** ""
1 25
ATOM$BLUE        STATIC     ATOMS    COLORGROUP SYSTEM
7 46 47 48 49 50 51 52
ATOM$RED        STATIC     ATOMS    COLORGROUP SYSTEM
1 25
