AV-unprocessed.smi:2224|AV-procd|sdf|8993|dock3
  -GOLD-   2272012203D 1   1.00000     0.00000
 Structure written by MMmdl.
 44 46  0  0  0  0  0  0  0  0  1 V2000
  151.9203  145.8959  160.2702 C   0  0  0  0  0  0  0  0  0  0  0  0
  151.9495  144.5328  159.6114 C   0  0  0  0  0  0  0  0  0  0  0  0
  152.8449  143.5374  160.0474 C   0  0  0  0  0  0  0  0  0  0  0  0
  152.8214  142.2900  159.3931 C   0  0  0  0  0  0  0  0  0  0  0  0
  153.7562  141.1743  159.8102 C   0  0  0  0  0  0  0  0  0  0  0  0
  151.9817  142.0077  158.3742 N   0  0  0  0  0  0  0  0  0  0  0  0
  151.1148  142.9589  157.9463 C   0  0  0  0  0  0  0  0  0  0  0  0
  150.1952  142.7658  156.8818 N   0  0  0  0  0  0  0  0  0  0  0  0
  150.0756  141.7021  156.0683 C   0  0  0  0  0  0  0  0  0  0  0  0
  150.7563  140.6777  156.1271 O   0  0  0  0  0  0  0  0  0  0  0  0
  149.0959  141.8880  155.1738 N   0  0  0  0  0  0  0  0  0  0  0  0
  148.6777  140.9065  154.1713 C   0  0  2  0  0  0  0  0  0  0  0  0
  147.3410  141.2762  153.4897 C   0  0  2  0  0  0  0  0  0  0  0  0
  146.6863  142.6271  153.6468 C   0  0  0  0  0  0  0  0  0  0  0  0
  145.6612  142.3799  154.7574 C   0  0  0  0  0  0  0  0  0  0  0  0
  146.1292  141.2145  155.4335 O   0  0  0  0  0  0  0  0  0  0  0  0
  146.6555  140.3219  154.4537 C   0  0  2  0  0  0  0  0  0  0  0  0
  148.0046  139.6511  154.7886 C   0  0  0  0  0  0  0  0  0  0  0  0
  148.2696  138.3563  154.0147 C   0  0  0  0  0  0  0  0  0  0  0  0
  148.2546  139.3263  156.2678 C   0  0  0  0  0  0  0  0  0  0  0  0
  151.0748  144.2374  158.5466 C   0  0  0  0  0  0  0  0  0  0  0  0
  152.7189  145.9988  161.0056 H   0  0  0  0  0  0  0  0  0  0  0  0
  150.9673  146.0490  160.7770 H   0  0  0  0  0  0  0  0  0  0  0  0
  152.0428  146.6804  159.5231 H   0  0  0  0  0  0  0  0  0  0  0  0
  153.5306  143.7241  160.8610 H   0  0  0  0  0  0  0  0  0  0  0  0
  154.4944  141.5261  160.5314 H   0  0  0  0  0  0  0  0  0  0  0  0
  154.2896  140.7792  158.9451 H   0  0  0  0  0  0  0  0  0  0  0  0
  153.1921  140.3614  160.2678 H   0  0  0  0  0  0  0  0  0  0  0  0
  149.5502  143.5252  156.7230 H   0  0  0  0  0  0  0  0  0  0  0  0
  148.5806  142.7554  155.2009 H   0  0  0  0  0  0  0  0  0  0  0  0
  149.4533  140.6637  153.4425 H   0  0  0  0  0  0  0  0  0  0  0  0
  147.3081  140.8902  152.4697 H   0  0  0  0  0  0  0  0  0  0  0  0
  147.4003  143.4003  153.9296 H   0  0  0  0  0  0  0  0  0  0  0  0
  146.1978  142.9577  152.7298 H   0  0  0  0  0  0  0  0  0  0  0  0
  145.5661  143.2266  155.4376 H   0  0  0  0  0  0  0  0  0  0  0  0
  144.6788  142.1712  154.3314 H   0  0  0  0  0  0  0  0  0  0  0  0
  145.9002  139.6851  153.9904 H   0  0  0  0  0  0  0  0  0  0  0  0
  147.6077  137.5523  154.3378 H   0  0  0  0  0  0  0  0  0  0  0  0
  149.2960  138.0136  154.1494 H   0  0  0  0  0  0  0  0  0  0  0  0
  148.1138  138.4885  152.9437 H   0  0  0  0  0  0  0  0  0  0  0  0
  147.6490  138.4830  156.6009 H   0  0  0  0  0  0  0  0  0  0  0  0
  148.0099  140.1641  156.9212 H   0  0  0  0  0  0  0  0  0  0  0  0
  149.2994  139.0723  156.4478 H   0  0  0  0  0  0  0  0  0  0  0  0
  150.3790  144.9866  158.1970 H   0  0  0  0  0  0  0  0  0  0  0  0
  1  2  1  0  0  0  0
  1 22  1  0  0  0  0
  1 23  1  0  0  0  0
  1 24  1  0  0  0  0
  2 21  1  0  0  0  0
  2  3  2  0  0  0  0
  3  4  1  0  0  0  0
  3 25  1  0  0  0  0
  4  5  1  0  0  0  0
  4  6  2  0  0  0  0
  5 26  1  0  0  0  0
  5 27  1  0  0  0  0
  5 28  1  0  0  0  0
  6  7  1  0  0  0  0
  7  8  1  0  0  0  0
  7 21  2  0  0  0  0
  8  9  1  0  0  0  0
  8 29  1  0  0  0  0
  9 10  2  0  0  0  0
  9 11  1  0  0  0  0
 11 12  1  0  0  0  0
 11 30  1  0  0  0  0
 12 18  1  0  0  0  0
 12 13  1  0  0  0  0
 12 31  1  0  0  0  0
 13 17  1  0  0  0  0
 13 14  1  0  0  0  0
 13 32  1  0  0  0  0
 14 15  1  0  0  0  0
 14 33  1  0  0  0  0
 14 34  1  0  0  0  0
 15 16  1  0  0  0  0
 15 35  1  0  0  0  0
 15 36  1  0  0  0  0
 16 17  1  0  0  0  0
 17 18  1  0  0  0  0
 17 37  1  0  0  0  0
 18 19  1  0  0  0  0
 18 20  1  0  0  0  0
 19 38  1  0  0  0  0
 19 39  1  0  0  0  0
 19 40  1  0  0  0  0
 20 41  1  0  0  0  0
 20 42  1  0  0  0  0
 20 43  1  0  0  0  0
 21 44  1  0  0  0  0
M  END
> <s_m_source_file>
AV-unprocessed.smi

> <i_m_source_file_index>
2224

> <i_lp_mmshare_version>
43012

> <i_f3d_flags>
0

> <s_epik_input>
W0NIM11jMVtjSF1jKFtDSDNdKW5jKFtjSF0xKVtOSF1DKD1PKVtOSF1bQ0BIXTJDKFtDSDNdKShbQ0gzXSlbQ0BIXShbQ0BASF0yMylPW0NIMl1bQ0gyXTM=

> <s_epik_cmdline>
J2VwaWtfcHl0aG9uJywgJy1waCcsICc3LjAnLCAnLXRuJywgJzgnLCAnLW1hJywgJzIwMCcsICctbWV0YWxfYmluZGluZycsICctaW1hZScsICc8aW5maWxlLm1hZT4nLCAnLW9tYWUnLCAnPG91dGZpbGUubWFlPic=

> <r_lp_tautomer_probability>
1

> <r_epik_Ionization_Penalty>
0.000276544

> <r_epik_Ionization_Penalty_Charging>
0

> <r_epik_Ionization_Penalty_Neutral>
0.000276544

> <r_epik_State_Penalty>
-0

> <r_epik_Charging_Adjusted_Penalty>
0

> <i_epik_Tot_Q>
0

> <i_epik_Tot_abs_Q>
0

> <r_epik_Metal_State_Penalty>
-0

> <b_epik_Metal_Only>
0

> <s_lp_Force_Field>
OPLS_2005

> <r_lp_Energy>
39.8946

> <b_lp_Chiralities_Consistent>
1

> <s_lp_Variant>
AV-unprocessed.smi:2224-3

> <Gold.Version>
5.8.1

> <Gold.Id.Protein>
6NUR|6NUR_protein|mol2

> <Gold.PLP.Fitness>
47.8194

> <Gold.PLP.PLP>
-42.4618

> <Gold.PLP.part.hbond>
-2.0000

> <Gold.PLP.part.metal>
0.0000

> <Gold.PLP.part.buried>
-6.0757

> <Gold.PLP.part.nonpolar>
-35.3661

> <Gold.PLP.part.repulsive>
0.3139

> <Gold.PLP.ligand.clash>
0.0000

> <Gold.PLP.ligand.torsion>
0.1031

> <Gold.PLP.Chemscore.Hbond>
1.7920

> <Gold.PLP.Chemscore.CHOScore>
0.0000

> <Gold.PLP.Chemscore.Metal>
0.0000

> <Gold.Chemscore.Hbonds>
donor molecule, donor type, donor heavy atom, donor atom, acceptor molecule, acceptor atom, score
      L1  H     8    29       P1  8028  1.00
      L1  H    11    30       P1  8028  0.80

> <Gold.PLP.Chemscore.Internal.Correction>
0.1878

> <Gold.Rescore>
     Score         DG    S(hbond)    S(metal)    S(lipo)     H(rot)  DE(clash)    DE(int)     intcor
     17.37     -22.45       1.86        0.00     113.78       1.00       1.43       3.65       ----

> <Gold.Chemscore.Fitness>
17.3685

> <Gold.Chemscore.DG>
-22.4530

> <Gold.Chemscore.ZeroCoef>
-5.4800

> <Gold.Chemscore.Hbond>
1.8623

> <Gold.Chemscore.Metal>
0.0000

> <Gold.Chemscore.Lipo>
113.7849

> <Gold.Chemscore.Internal_Hbond>
0.0000

> <Gold.Chemscore.DEClash>
1.4312

> <Gold.Chemscore.DEInternal>
3.6533

> <Gold.Chemscore.Rot>
1.0000

> <Gold.Chemscore.Internal.Correction>
   9.000000E+99

> <Gold.Chemscore.Hbonds>
donor molecule, donor type, donor heavy atom, donor atom, acceptor molecule, acceptor atom, score
      L1  H     8    29       P1  8028  0.94
      L1  H    11    30       P1  8028  0.74

> <Gold.Chemscore.Hbond.Weighted>
-6.2202

> <Gold.Chemscore.Metal.Weighted>
-0.0000

> <Gold.Chemscore.Lipo.Weighted>
-13.3128

> <Gold.Chemscore.Internal_Hbond.Weighted>
0.0000

> <Gold.Chemscore.DEClash.Weighted>
1.4312

> <Gold.Chemscore.DEInternal.Weighted>
3.6533

> <Gold.Chemscore.Rot.Weighted>
2.5600

> <Gold.Chemscore.Internal.Correction.Weighted>
   9.000000E+99

> <Gold.Protein.RotatedTorsions>
[ 6907 6896 6895 6894 ] final   13.42 input  -60.11 | X-H torsion
[ 7974 7965 7964 7962 ] final  104.21 input  175.53 | X-H torsion
[ 8008 7997 7996 7995 ] final  -83.82 input   59.86 | X-H torsion
[ 10167 10162 10161 10158 ] final  166.52 input  -65.29 | X-H torsion
[ 10718 10713 10712 10709 ] final -140.77 input   66.30 | X-H torsion
[ 10763 10752 10751 10750 ] final   30.69 input  -60.55 | X-H torsion
[ 11005 11000 10999 10996 ] final   43.79 input  -57.11 | X-H torsion

> <Gold.Protein.ActiveResidues>
 VAL166  LYS551  ARG553  GLY616  TRP617  ASP618  TYR619  PRO620  LYS621  CYS622 
 ASP623  PHE694  ASN695  SER759  ASP760  ASP761  ALA762  ILE779  LEU786  VAL792 
 PHE793  MET794  SER795  GLU796  ALA797  LYS798  CYS799  TRP800  GLU811  SER814 

> <Gold.Protein.RotatedAtoms>
  151.7861  135.0748  160.0380 H   0  0  0  0  0  0  0  0  0  0  0  0  # atno 6907 bound_to 6896
  152.3189  133.5828  159.5739 H   0  0  0  0  0  0  0  0  0  0  0  0  # atno 6908 bound_to 6896
  150.7359  133.9957  159.3663 H   0  0  0  0  0  0  0  0  0  0  0  0  # atno 6909 bound_to 6896
  145.3357  139.2475  143.3636 H   0  0  0  0  0  0  0  0  0  0  0  0  # atno 7974 bound_to 7965
  154.6232  140.0613  156.9640 H   0  0  0  0  0  0  0  0  0  0  0  0  # atno 8008 bound_to 7997
  155.1784  140.3297  155.4361 H   0  0  0  0  0  0  0  0  0  0  0  0  # atno 8009 bound_to 7997
  156.2443  140.1902  156.6882 H   0  0  0  0  0  0  0  0  0  0  0  0  # atno 8010 bound_to 7997
  139.4926  144.4019  151.9399 H   0  0  0  0  0  0  0  0  0  0  0  0  # atno 10167 bound_to 10162
  156.3262  130.7561  151.1669 H   0  0  0  0  0  0  0  0  0  0  0  0  # atno 10718 bound_to 10713
  153.0357  135.6458  154.1083 H   0  0  0  0  0  0  0  0  0  0  0  0  # atno 10763 bound_to 10752
  154.0798  135.2874  155.3294 H   0  0  0  0  0  0  0  0  0  0  0  0  # atno 10764 bound_to 10752
  154.6537  135.5416  153.7997 H   0  0  0  0  0  0  0  0  0  0  0  0  # atno 10765 bound_to 10752
  140.1612  134.4339  155.8317 H   0  0  0  0  0  0  0  0  0  0  0  0  # atno 11005 bound_to 11000
  146.3028  140.3944  142.8698 LP  0  0  0  0  0  0  0  0  0  0  0  0  # atno 17320 bound_to 7965
  144.8829  140.7424  143.5975 LP  0  0  0  0  0  0  0  0  0  0  0  0  # atno 17321 bound_to 7965
  140.3458  144.3148  150.5958 LP  0  0  0  0  0  0  0  0  0  0  0  0  # atno 17342 bound_to 10162
  140.5527  143.2204  151.7900 LP  0  0  0  0  0  0  0  0  0  0  0  0  # atno 17343 bound_to 10162
  157.7421  131.0494  150.5044 LP  0  0  0  0  0  0  0  0  0  0  0  0  # atno 17370 bound_to 10713
  156.5204  130.4160  149.6254 LP  0  0  0  0  0  0  0  0  0  0  0  0  # atno 17371 bound_to 10713
  141.2209  133.6914  156.7596 LP  0  0  0  0  0  0  0  0  0  0  0  0  # atno 17394 bound_to 11000
  140.2488  134.8557  157.3647 LP  0  0  0  0  0  0  0  0  0  0  0  0  # atno 17395 bound_to 11000

$$$$
