AV-unprocessed.smi:341|AV-procd|sdf|2382|dock3
  -GOLD-   2262022303D 1   1.00000     0.00000
 Structure written by MMmdl.
 44 46  0  0  0  0  0  0  0  0  1 V2000
  155.2202  140.5145  159.7425 C   0  0  0  0  0  0  0  0  0  0  0  0
  153.8428  140.7079  160.3882 C   0  0  0  0  0  0  0  0  0  0  0  0
  152.9241  141.3890  159.4794 N   0  0  0  0  0  0  0  0  0  0  0  0
  152.5083  140.9461  158.2693 C   0  0  0  0  0  0  0  0  0  0  0  0
  152.8285  139.8826  157.7392 O   0  0  0  0  0  0  0  0  0  0  0  0
  151.6726  141.8738  157.7464 N   0  0  0  0  0  0  0  0  0  0  0  0
  150.9767  141.7930  156.4634 C   0  0  0  0  0  0  0  0  0  0  0  0
  150.6922  140.3299  156.0652 C   0  0  2  0  0  0  0  0  0  0  0  0
  151.6797  139.9362  155.1326 O   0  0  0  0  0  0  0  0  0  0  0  0
  149.3283  140.1763  155.3704 C   0  0  0  0  0  0  0  0  0  0  0  0
  148.3196  140.7105  156.2185 O   0  0  0  0  0  0  0  0  0  0  0  0
  147.3747  141.5469  155.6642 C   0  0  0  0  0  0  0  0  0  0  0  0
  146.4128  142.0929  156.5390 C   0  0  0  0  0  0  0  0  0  0  0  0
  145.4098  142.9582  156.0605 C   0  0  0  0  0  0  0  0  0  0  0  0
  145.3589  143.2894  154.6923 C   0  0  0  0  0  0  0  0  0  0  0  0
  144.3267  144.1839  154.1954 C   0  0  0  0  0  0  0  0  0  0  0  0
  143.5054  144.8963  153.7996 N   0  0  0  0  0  0  0  0  0  0  0  0
  146.3139  142.7503  153.8078 C   0  0  0  0  0  0  0  0  0  0  0  0
  147.3163  141.8848  154.2883 C   0  0  0  0  0  0  0  0  0  0  0  0
  151.5451  142.9384  158.6505 C   0  0  0  0  0  0  0  0  0  0  0  0
  150.7949  144.1257  158.5830 C   0  0  0  0  0  0  0  0  0  0  0  0
  150.8874  145.0120  159.6817 C   0  0  0  0  0  0  0  0  0  0  0  0
  151.7068  144.7029  160.7983 C   0  0  0  0  0  0  0  0  0  0  0  0
  152.4489  143.4994  160.8417 C   0  0  0  0  0  0  0  0  0  0  0  0
  152.3367  142.6355  159.7385 C   0  0  0  0  0  0  0  0  0  0  0  0
  155.9017  140.0104  160.4279 H   0  0  0  0  0  0  0  0  0  0  0  0
  155.6676  141.4717  159.4728 H   0  0  0  0  0  0  0  0  0  0  0  0
  155.1505  139.9093  158.8381 H   0  0  0  0  0  0  0  0  0  0  0  0
  153.4304  139.7403  160.6783 H   0  0  0  0  0  0  0  0  0  0  0  0
  153.9397  141.2824  161.3097 H   0  0  0  0  0  0  0  0  0  0  0  0
  150.0403  142.3418  156.5666 H   0  0  0  0  0  0  0  0  0  0  0  0
  151.5326  142.3150  155.6820 H   0  0  0  0  0  0  0  0  0  0  0  0
  150.7277  139.6861  156.9456 H   0  0  0  0  0  0  0  0  0  0  0  0
  152.4675  139.7117  155.6042 H   0  0  0  0  0  0  0  0  0  0  0  0
  149.3258  140.7492  154.4418 H   0  0  0  0  0  0  0  0  0  0  0  0
  149.1356  139.1317  155.1190 H   0  0  0  0  0  0  0  0  0  0  0  0
  146.4442  141.8450  157.5899 H   0  0  0  0  0  0  0  0  0  0  0  0
  144.6833  143.3645  156.7498 H   0  0  0  0  0  0  0  0  0  0  0  0
  146.2846  142.9969  152.7560 H   0  0  0  0  0  0  0  0  0  0  0  0
  148.0302  141.4944  153.5794 H   0  0  0  0  0  0  0  0  0  0  0  0
  150.1726  144.3559  157.7310 H   0  0  0  0  0  0  0  0  0  0  0  0
  150.3278  145.9357  159.6697 H   0  0  0  0  0  0  0  0  0  0  0  0
  151.7636  145.3939  161.6265 H   0  0  0  0  0  0  0  0  0  0  0  0
  153.0736  143.2586  161.6891 H   0  0  0  0  0  0  0  0  0  0  0  0
  1  2  1  0  0  0  0
  1 26  1  0  0  0  0
  1 27  1  0  0  0  0
  1 28  1  0  0  0  0
  2  3  1  0  0  0  0
  2 29  1  0  0  0  0
  2 30  1  0  0  0  0
  3 25  1  0  0  0  0
  3  4  1  0  0  0  0
  4  5  2  0  0  0  0
  4  6  1  0  0  0  0
  6  7  1  0  0  0  0
  6 20  1  0  0  0  0
  7  8  1  0  0  0  0
  7 31  1  0  0  0  0
  7 32  1  0  0  0  0
  8  9  1  0  0  0  0
  8 10  1  0  0  0  0
  8 33  1  0  0  0  0
  9 34  1  0  0  0  0
 10 11  1  0  0  0  0
 10 35  1  0  0  0  0
 10 36  1  0  0  0  0
 11 12  1  0  0  0  0
 12 19  1  0  0  0  0
 12 13  2  0  0  0  0
 13 14  1  0  0  0  0
 13 37  1  0  0  0  0
 14 15  2  0  0  0  0
 14 38  1  0  0  0  0
 15 16  1  0  0  0  0
 15 18  1  0  0  0  0
 16 17  3  0  0  0  0
 18 19  2  0  0  0  0
 18 39  1  0  0  0  0
 19 40  1  0  0  0  0
 20 25  2  0  0  0  0
 20 21  1  0  0  0  0
 21 22  2  0  0  0  0
 21 41  1  0  0  0  0
 22 23  1  0  0  0  0
 22 42  1  0  0  0  0
 23 24  2  0  0  0  0
 23 43  1  0  0  0  0
 24 25  1  0  0  0  0
 24 44  1  0  0  0  0
M  END
> <s_m_source_file>
AV-unprocessed.smi

> <i_m_source_file_index>
341

> <i_lp_mmshare_version>
43012

> <i_f3d_flags>
0

> <s_epik_input>
W2NIXTFbY0hdW2NIXVtjSF1jKGMxMiluKFtDSDJdW0NIM10pYyg9TyluMltDSDJdW0NASF0oW09IXSlbQ0gyXU9jM1tjSF1bY0hdYyhDI04pW2NIXVtjSF0z

> <s_epik_cmdline>
J2VwaWtfcHl0aG9uJywgJy1waCcsICc3LjAnLCAnLXRuJywgJzgnLCAnLW1hJywgJzIwMCcsICctbWV0YWxfYmluZGluZycsICctaW1hZScsICc8aW5maWxlLm1hZT4nLCAnLW9tYWUnLCAnPG91dGZpbGUubWFlPic=

> <r_lp_tautomer_probability>
1

> <r_epik_Ionization_Penalty>
2.40146e-06

> <r_epik_Ionization_Penalty_Charging>
2.16099e-09

> <r_epik_Ionization_Penalty_Neutral>
2.3993e-06

> <r_epik_State_Penalty>
-0

> <r_epik_Charging_Adjusted_Penalty>
2.16099e-09

> <i_epik_Tot_Q>
0

> <i_epik_Tot_abs_Q>
0

> <r_epik_Metal_State_Penalty>
-0

> <b_epik_Metal_Only>
0

> <s_lp_Force_Field>
OPLS_2005

> <r_lp_Energy>
48.2045

> <b_lp_Chiralities_Consistent>
1

> <s_lp_Variant>
AV-unprocessed.smi:341-1

> <Gold.Version>
5.8.1

> <Gold.Id.Protein>
6NUR|6NUR_protein|mol2

> <Gold.PLP.Fitness>
59.5202

> <Gold.PLP.PLP>
-55.8862

> <Gold.PLP.part.hbond>
-3.0000

> <Gold.PLP.part.metal>
0.0000

> <Gold.PLP.part.buried>
-9.9526

> <Gold.PLP.part.nonpolar>
-44.1027

> <Gold.PLP.part.repulsive>
0.1703

> <Gold.PLP.ligand.clash>
0.0000

> <Gold.PLP.ligand.torsion>
1.2638

> <Gold.PLP.Chemscore.Hbond>
2.0000

> <Gold.PLP.Chemscore.CHOScore>
0.0000

> <Gold.PLP.Chemscore.Metal>
0.0000

> <Gold.Chemscore.Hbonds>
donor molecule, donor type, donor heavy atom, donor atom, acceptor molecule, acceptor atom, score
      P1  H  7989  7998       L1     9  1.00
      P1  H  7997  8008       L1     5  1.00

> <Gold.PLP.Chemscore.Internal.Correction>
0.1615

> <Gold.Rescore>
     Score         DG    S(hbond)    S(metal)    S(lipo)     H(rot)  DE(clash)    DE(int)     intcor
     17.76     -20.54       1.84        0.00     130.42       2.48       0.07       2.71       ----

> <Gold.Chemscore.Fitness>
17.7556

> <Gold.Chemscore.DG>
-20.5367

> <Gold.Chemscore.ZeroCoef>
-5.4800

> <Gold.Chemscore.Hbond>
1.8379

> <Gold.Chemscore.Metal>
0.0000

> <Gold.Chemscore.Lipo>
130.4177

> <Gold.Chemscore.Internal_Hbond>
0.0000

> <Gold.Chemscore.DEClash>
0.0687

> <Gold.Chemscore.DEInternal>
2.7125

> <Gold.Chemscore.Rot>
2.4768

> <Gold.Chemscore.Internal.Correction>
   9.000000E+99

> <Gold.Chemscore.Hbonds>
donor molecule, donor type, donor heavy atom, donor atom, acceptor molecule, acceptor atom, score
      P1  H  7989  7998       L1     9  0.86
      P1  H  7997  8008       L1     5  0.78

> <Gold.Chemscore.Hbond.Weighted>
-6.1386

> <Gold.Chemscore.Metal.Weighted>
-0.0000

> <Gold.Chemscore.Lipo.Weighted>
-15.2589

> <Gold.Chemscore.Internal_Hbond.Weighted>
0.0000

> <Gold.Chemscore.DEClash.Weighted>
0.0687

> <Gold.Chemscore.DEInternal.Weighted>
2.7125

> <Gold.Chemscore.Rot.Weighted>
6.3407

> <Gold.Chemscore.Internal.Correction.Weighted>
   9.000000E+99

> <Gold.Protein.RotatedTorsions>
[ 6907 6896 6895 6894 ] final   95.06 input  -60.11 | X-H torsion
[ 7974 7965 7964 7962 ] final  147.97 input  175.53 | X-H torsion
[ 8008 7997 7996 7995 ] final  -66.79 input   59.86 | X-H torsion
[ 10167 10162 10161 10158 ] final -175.43 input  -65.29 | X-H torsion
[ 10718 10713 10712 10709 ] final    8.23 input   66.30 | X-H torsion
[ 10763 10752 10751 10750 ] final   -0.39 input  -60.55 | X-H torsion
[ 11005 11000 10999 10996 ] final -120.31 input  -57.11 | X-H torsion

> <Gold.Protein.ActiveResidues>
 VAL166  LYS551  ARG553  GLY616  TRP617  ASP618  TYR619  PRO620  LYS621  CYS622 
 ASP623  PHE694  ASN695  SER759  ASP760  ASP761  ALA762  ILE779  LEU786  VAL792 
 PHE793  MET794  SER795  GLU796  ALA797  LYS798  CYS799  TRP800  GLU811  SER814 

> <Gold.Protein.RotatedAtoms>
  152.5446  134.1097  159.8352 H   0  0  0  0  0  0  0  0  0  0  0  0  # atno 6907 bound_to 6896
  151.1165  133.5127  159.2611 H   0  0  0  0  0  0  0  0  0  0  0  0  # atno 6908 bound_to 6896
  151.1826  135.0377  159.8853 H   0  0  0  0  0  0  0  0  0  0  0  0  # atno 6909 bound_to 6896
  144.8550  139.6096  143.5956 H   0  0  0  0  0  0  0  0  0  0  0  0  # atno 7974 bound_to 7965
  154.4757  140.0905  156.7257 H   0  0  0  0  0  0  0  0  0  0  0  0  # atno 8008 bound_to 7997
  155.4602  140.3460  155.4293 H   0  0  0  0  0  0  0  0  0  0  0  0  # atno 8009 bound_to 7997
  156.1113  140.1448  156.9323 H   0  0  0  0  0  0  0  0  0  0  0  0  # atno 8010 bound_to 7997
  139.5581  144.1938  152.1193 H   0  0  0  0  0  0  0  0  0  0  0  0  # atno 10167 bound_to 10162
  156.9486  130.5888  149.5655 H   0  0  0  0  0  0  0  0  0  0  0  0  # atno 10718 bound_to 10713
  153.3313  135.6975  153.6946 H   0  0  0  0  0  0  0  0  0  0  0  0  # atno 10763 bound_to 10752
  153.5747  135.3509  155.2852 H   0  0  0  0  0  0  0  0  0  0  0  0  # atno 10764 bound_to 10752
  154.8618  135.4280  154.2502 H   0  0  0  0  0  0  0  0  0  0  0  0  # atno 10765 bound_to 10752
  141.0153  134.0205  157.3359 H   0  0  0  0  0  0  0  0  0  0  0  0  # atno 11005 bound_to 11000
  146.2815  139.6891  142.9225 LP  0  0  0  0  0  0  0  0  0  0  0  0  # atno 17320 bound_to 7965
  145.4425  141.0423  143.2849 LP  0  0  0  0  0  0  0  0  0  0  0  0  # atno 17321 bound_to 7965
  140.1446  144.5171  150.6723 LP  0  0  0  0  0  0  0  0  0  0  0  0  # atno 17342 bound_to 10162
  140.6857  143.2349  151.5266 LP  0  0  0  0  0  0  0  0  0  0  0  0  # atno 17343 bound_to 10162
  156.0373  130.5459  150.8684 LP  0  0  0  0  0  0  0  0  0  0  0  0  # atno 17370 bound_to 10713
  157.5737  131.0946  150.9378 LP  0  0  0  0  0  0  0  0  0  0  0  0  # atno 17371 bound_to 10713
  139.9113  135.0190  156.7703 LP  0  0  0  0  0  0  0  0  0  0  0  0  # atno 17394 bound_to 11000
  140.6666  133.9597  155.7833 LP  0  0  0  0  0  0  0  0  0  0  0  0  # atno 17395 bound_to 11000

$$$$
