#       Name:                AV-unprocessed.smi:1551
#       Creating user name   scv26
#       Creation time:       Fri Mar 27 06:41:21 2020


#       File generated by GOLD software.
#

@<TRIPOS>MOLECULE
AV-unprocessed.smi:1551
    45    46     1
SMALL
NO_CHARGES


@<TRIPOS>ATOM
      1 ****        -3.4382  -4.1633  -0.3503 C.3            1 S1                 0.0000
      2 ****        -2.7994  -2.8913  -0.3511 O.3            1 S1                 0.0000
      3 ****        -3.5880  -1.7564  -0.3570 C.ar           1 S1                 0.0000
      4 ****        -4.9364  -1.9078  -0.3657 N.ar           1 S1                 0.0000
      5 ****        -5.7075  -0.8011  -0.3749 C.ar           1 S1                 0.0000
      6 ****        -5.1820   0.5039  -0.3833 C.ar           1 S1                 0.0000
      7 ****        -3.7841   0.6636  -0.3751 C.ar           1 S1                 0.0000
      8 ****        -2.9611  -0.4884  -0.3490 C.ar           1 S1                 0.0000
      9 ****        -1.5397  -0.4389  -0.3588 N.am           1 S1                 0.0000
     10 ****        -0.7348   0.5527   0.0593 C.2            1 S1                 0.0000
     11 ****        -1.1142   1.6097   0.5632 O.2            1 S1                 0.0000
     12 ****         0.5551   0.2354  -0.1237 N.am           1 S1                 0.0000
     13 ****         1.7012   1.0696   0.2287 C.3            1 S1                 0.0000
     14 ****         2.6142   1.2405  -0.9988 C.3            1 S1                 0.0000
     15 ****         3.8724   2.0574  -0.6567 C.3            1 S1                 0.0000
     16 ****         4.6480   1.4647   0.5351 C.3            1 S1                 0.0000
     17 ****         5.2584   0.2459   0.1590 O.3            1 S1                 0.0000
     18 ****         3.7325   1.2427   1.7543 C.3            1 S1                 0.0000
     19 ****         2.4724   0.4331   1.4000 C.3            1 S1                 0.0000
     20 ****        -2.6803  -4.9463  -0.3391 H              1 S1                 0.0000
     21 ****        -4.0465  -4.3050  -1.2448 H              1 S1                 0.0000
     22 ****        -4.0633  -4.2962   0.5340 H              1 S1                 0.0000
     23 ****        -6.7755  -0.9606  -0.3824 H              1 S1                 0.0000
     24 ****        -5.8363   1.3629  -0.4010 H              1 S1                 0.0000
     25 ****        -3.3734   1.6609  -0.4042 H              1 S1                 0.0000
     26 ****        -1.0817  -1.2866  -0.6608 H              1 S1                 0.0000
     27 ****         0.7641  -0.6606  -0.5391 H              1 S1                 0.0000
     28 ****         1.3665   2.0613   0.5384 H              1 S1                 0.0000
     29 ****         2.9082   0.2619  -1.3813 H              1 S1                 0.0000
     30 ****         2.0675   1.7331  -1.8038 H              1 S1                 0.0000
     31 ****         4.5199   2.1327  -1.5312 H              1 S1                 0.0000
     32 ****         3.5738   3.0778  -0.4129 H              1 S1                 0.0000
     33 ****         5.4507   2.1484   0.8132 H              1 S1                 0.0000
     34 ****         5.8411   0.4131  -0.5659 H              1 S1                 0.0000
     35 ****         4.2828   0.7481   2.5556 H              1 S1                 0.0000
     36 ****         3.4281   2.2125   2.1500 H              1 S1                 0.0000
     37 ****         1.8271   0.3608   2.2763 H              1 S1                 0.0000
     38 ****         2.7575  -0.5884   1.1441 H              1 S1                 0.0000
     39 ****        -2.2204  -2.8525  -1.1655 LP             1 S1                 0.0000
     40 ****        -2.2266  -2.8483   0.4675 LP             1 S1                 0.0000
     41 ****        -5.3489  -2.8188  -0.3653 LP             1 S1                 0.0000
     42 ****        -2.0913   1.7816   0.6882 LP             1 S1                 0.0000
     43 ****        -0.4453   2.2965   0.8475 LP             1 S1                 0.0000
     44 ****         4.5571  -0.4115  -0.1168 LP             1 S1                 0.0000
     45 ****         5.7769  -0.1237   0.9301 LP             1 S1                 0.0000
@<TRIPOS>BOND
    1    1    2 1     
    2    1   20 1     
    3    1   21 1     
    4    1   22 1     
    5    2    3 1     
    6    3    8 ar    
    7    3    4 ar    
    8    4    5 ar    
    9    5    6 ar    
   10    5   23 1     
   11    6    7 ar    
   12    6   24 1     
   13    7    8 ar    
   14    7   25 1     
   15    8    9 1     
   16    9   10 am    
   17    9   26 1     
   18   10   11 2     
   19   10   12 am    
   20   12   13 1     
   21   12   27 1     
   22   13   19 1     
   23   13   14 1     
   24   13   28 1     
   25   14   15 1     
   26   14   29 1     
   27   14   30 1     
   28   15   16 1     
   29   15   31 1     
   30   15   32 1     
   31   16   17 1     
   32   16   18 1     
   33   16   33 1     
   34   17   34 1     
   35   18   19 1     
   36   18   35 1     
   37   18   36 1     
   38   19   37 1     
   39   19   38 1     
   40    2   39 1     
   41    2   40 1     
   42    4   41 1     
   43   11   42 1     
   44   11   43 1     
   45   17   44 1     
   46   17   45 1     
@<TRIPOS>SUBSTRUCTURE
      1 S1             1
@<TRIPOS>SET
LONE_PAIRS      STATIC     ATOMS    <user>   **** ""
7 39 40 41 42 43 44 45
DONOR_HYDROGENS      STATIC     ATOMS    <user>   **** ""
3 26 27 34
ATOM$BLUE        STATIC     ATOMS    COLORGROUP SYSTEM
7 39 40 41 42 43 44 45
ATOM$RED        STATIC     ATOMS    COLORGROUP SYSTEM
3 26 27 34
