AV-unprocessed.smi:3346|AV-procd|sdf|12909|dock5
  -GOLD-   2272019323D 1   1.00000     0.00000
 Structure written by MMmdl.
 47 48  0  0  0  0  0  0  0  0  1 V2000
  151.2200  145.3600  160.0415 C   0  0  0  0  0  0  0  0  0  0  0  0
  151.7432  144.1782  159.2117 C   0  0  0  0  0  0  0  0  0  0  0  0
  152.7088  144.6771  158.1233 C   0  0  0  0  0  0  0  0  0  0  0  0
  150.5684  143.3576  158.6331 C   0  0  0  0  0  0  0  0  0  0  0  0
  150.8304  141.8428  158.4872 C   0  0  2  0  0  0  0  0  0  0  0  0
  152.2665  141.5831  157.9977 C   0  0  0  0  0  0  0  0  0  0  0  0
  149.8794  141.2901  157.5289 N   0  0  0  0  0  0  0  0  0  0  0  0
  150.1104  141.7817  156.1784 C   0  0  0  0  0  0  0  0  0  0  0  0
  149.0135  141.3593  155.2146 C   0  0  0  0  0  0  0  0  0  0  0  0
  147.9526  142.2501  154.9476 C   0  0  0  0  0  0  0  0  0  0  0  0
  146.9465  141.8686  154.0418 C   0  0  0  0  0  0  0  0  0  0  0  0
  147.0422  140.6031  153.4349 C   0  0  0  0  0  0  0  0  0  0  0  0
  148.0482  139.7388  153.6823 N   0  0  0  0  0  0  0  0  0  0  0  0
  149.0198  140.1017  154.5554 C   0  0  0  0  0  0  0  0  0  0  0  0
  150.0396  139.1696  154.8129 N   0  0  0  0  0  0  0  0  0  0  0  0
  149.7443  137.8442  154.2862 C   0  0  0  0  0  0  0  0  0  0  0  0
  150.7889  136.8357  154.7942 C   0  0  0  0  0  0  0  0  0  0  0  0
  152.0955  137.2811  154.4403 O   0  0  0  0  0  0  0  0  0  0  0  0
  152.4030  138.5492  155.0141 C   0  0  0  0  0  0  0  0  0  0  0  0
  151.3995  139.6003  154.5091 C   0  0  0  0  0  0  0  0  0  0  0  0
  150.6368  146.0480  159.4285 H   0  0  0  0  0  0  0  0  0  0  0  0
  152.0413  145.9236  160.4852 H   0  0  0  0  0  0  0  0  0  0  0  0
  150.5822  145.0173  160.8568 H   0  0  0  0  0  0  0  0  0  0  0  0
  152.3073  143.5413  159.8922 H   0  0  0  0  0  0  0  0  0  0  0  0
  152.1921  145.2914  157.3856 H   0  0  0  0  0  0  0  0  0  0  0  0
  153.1862  143.8515  157.5966 H   0  0  0  0  0  0  0  0  0  0  0  0
  153.5066  145.2808  158.5567 H   0  0  0  0  0  0  0  0  0  0  0  0
  149.6820  143.5047  159.2526 H   0  0  0  0  0  0  0  0  0  0  0  0
  150.3128  143.7710  157.6565 H   0  0  0  0  0  0  0  0  0  0  0  0
  150.6987  141.3625  159.4565 H   0  0  0  0  0  0  0  0  0  0  0  0
  152.9937  142.0318  158.6752 H   0  0  0  0  0  0  0  0  0  0  0  0
  152.4332  142.0090  157.0076 H   0  0  0  0  0  0  0  0  0  0  0  0
  152.4957  140.5191  157.9462 H   0  0  0  0  0  0  0  0  0  0  0  0
  148.9344  141.4920  157.8225 H   0  0  0  0  0  0  0  0  0  0  0  0
  150.1586  142.8703  156.1807 H   0  0  0  0  0  0  0  0  0  0  0  0
  151.0779  141.4304  155.8180 H   0  0  0  0  0  0  0  0  0  0  0  0
  147.9116  143.2163  155.4287 H   0  0  0  0  0  0  0  0  0  0  0  0
  146.1234  142.5304  153.8165 H   0  0  0  0  0  0  0  0  0  0  0  0
  146.2899  140.2750  152.7329 H   0  0  0  0  0  0  0  0  0  0  0  0
  148.7432  137.5325  154.5821 H   0  0  0  0  0  0  0  0  0  0  0  0
  149.7577  137.8777  153.1960 H   0  0  0  0  0  0  0  0  0  0  0  0
  150.7181  136.7161  155.8761 H   0  0  0  0  0  0  0  0  0  0  0  0
  150.6133  135.8548  154.3527 H   0  0  0  0  0  0  0  0  0  0  0  0
  152.3809  138.4815  156.1030 H   0  0  0  0  0  0  0  0  0  0  0  0
  153.4175  138.8313  154.7326 H   0  0  0  0  0  0  0  0  0  0  0  0
  151.5167  139.7319  153.4325 H   0  0  0  0  0  0  0  0  0  0  0  0
  151.5956  140.5647  154.9788 H   0  0  0  0  0  0  0  0  0  0  0  0
  1  2  1  0  0  0  0
  1 21  1  0  0  0  0
  1 22  1  0  0  0  0
  1 23  1  0  0  0  0
  2  3  1  0  0  0  0
  2  4  1  0  0  0  0
  2 24  1  0  0  0  0
  3 25  1  0  0  0  0
  3 26  1  0  0  0  0
  3 27  1  0  0  0  0
  4  5  1  0  0  0  0
  4 28  1  0  0  0  0
  4 29  1  0  0  0  0
  5  6  1  0  0  0  0
  5  7  1  0  0  0  0
  5 30  1  0  0  0  0
  6 31  1  0  0  0  0
  6 32  1  0  0  0  0
  6 33  1  0  0  0  0
  7  8  1  0  0  0  0
  7 34  1  0  0  0  0
  8  9  1  0  0  0  0
  8 35  1  0  0  0  0
  8 36  1  0  0  0  0
  9 14  1  0  0  0  0
  9 10  2  0  0  0  0
 10 11  1  0  0  0  0
 10 37  1  0  0  0  0
 11 12  2  0  0  0  0
 11 38  1  0  0  0  0
 12 13  1  0  0  0  0
 12 39  1  0  0  0  0
 13 14  2  0  0  0  0
 14 15  1  0  0  0  0
 15 20  1  0  0  0  0
 15 16  1  0  0  0  0
 16 17  1  0  0  0  0
 16 40  1  0  0  0  0
 16 41  1  0  0  0  0
 17 18  1  0  0  0  0
 17 42  1  0  0  0  0
 17 43  1  0  0  0  0
 18 19  1  0  0  0  0
 19 20  1  0  0  0  0
 19 44  1  0  0  0  0
 19 45  1  0  0  0  0
 20 46  1  0  0  0  0
 20 47  1  0  0  0  0
M  END
> <s_m_source_file>
AV-unprocessed.smi

> <i_m_source_file_index>
3346

> <i_lp_mmshare_version>
43012

> <i_f3d_flags>
0

> <s_epik_input>
W0NIM11bQ0hdKFtDSDNdKVtDSDJdW0NASF0oW0NIM10pW05IXVtDSDJdYzFbY0hdW2NIXVtjSF1uYzFOMltDSDJdW0NIMl1PW0NIMl1bQ0gyXTI=

> <s_epik_cmdline>
J2VwaWtfcHl0aG9uJywgJy1waCcsICc3LjAnLCAnLXRuJywgJzgnLCAnLW1hJywgJzIwMCcsICctbWV0YWxfYmluZGluZycsICctaW1hZScsICc8aW5maWxlLm1hZT4nLCAnLW9tYWUnLCAnPG91dGZpbGUubWFlPic=

> <r_lp_tautomer_probability>
1

> <r_epik_Ionization_Penalty>
2.09752

> <r_epik_Ionization_Penalty_Charging>
0

> <r_epik_Ionization_Penalty_Neutral>
2.09752

> <r_epik_State_Penalty>
2.22589

> <r_epik_Charging_Adjusted_Penalty>
2.22589

> <i_epik_Tot_Q>
0

> <i_epik_Tot_abs_Q>
0

> <r_epik_Metal_State_Penalty>
2.21996

> <b_epik_Metal_Only>
0

> <s_lp_Force_Field>
OPLS_2005

> <r_lp_Energy>
25.807

> <b_lp_Chiralities_Consistent>
1

> <s_lp_Variant>
AV-unprocessed.smi:3346-3

> <Gold.Version>
5.8.1

> <Gold.Id.Protein>
6NUR|6NUR_protein|mol2

> <Gold.PLP.Fitness>
42.8453

> <Gold.PLP.PLP>
-39.3663

> <Gold.PLP.part.hbond>
-1.0000

> <Gold.PLP.part.metal>
0.0000

> <Gold.PLP.part.buried>
-0.1047

> <Gold.PLP.part.nonpolar>
-38.1121

> <Gold.PLP.part.repulsive>
0.4012

> <Gold.PLP.ligand.clash>
0.0000

> <Gold.PLP.ligand.torsion>
1.0865

> <Gold.PLP.Chemscore.Hbond>
1.0000

> <Gold.PLP.Chemscore.CHOScore>
0.8118

> <Gold.PLP.Chemscore.Metal>
0.0000

> <Gold.Chemscore.Hbonds>
donor molecule, donor type, donor heavy atom, donor atom, acceptor molecule, acceptor atom, score
      P1  H 10752 10764       L1    18  0.65
      L1  C    12    39       P1 10175  0.77

> <Gold.PLP.Chemscore.Internal.Correction>
0.2165

> <Gold.Rescore>
     Score         DG    S(hbond)    S(metal)    S(lipo)     H(rot)  DE(clash)    DE(int)     intcor
     16.74     -18.38       0.97        0.00     116.52       1.55       0.57       1.06       ----

> <Gold.Chemscore.Fitness>
16.7420

> <Gold.Chemscore.DG>
-18.3809

> <Gold.Chemscore.ZeroCoef>
-5.4800

> <Gold.Chemscore.Hbond>
0.9699

> <Gold.Chemscore.Metal>
0.0000

> <Gold.Chemscore.Lipo>
116.5210

> <Gold.Chemscore.Internal_Hbond>
0.0000

> <Gold.Chemscore.DEClash>
0.5744

> <Gold.Chemscore.DEInternal>
1.0645

> <Gold.Chemscore.Rot>
1.5514

> <Gold.Chemscore.Internal.Correction>
   9.000000E+99

> <Gold.Chemscore.Hbonds>
donor molecule, donor type, donor heavy atom, donor atom, acceptor molecule, acceptor atom, score
      P1  H 10752 10764       L1    18  0.11

> <Gold.Chemscore.Hbond.Weighted>
-3.2395

> <Gold.Chemscore.Metal.Weighted>
-0.0000

> <Gold.Chemscore.Lipo.Weighted>
-13.6330

> <Gold.Chemscore.Internal_Hbond.Weighted>
0.0000

> <Gold.Chemscore.DEClash.Weighted>
0.5744

> <Gold.Chemscore.DEInternal.Weighted>
1.0645

> <Gold.Chemscore.Rot.Weighted>
3.9715

> <Gold.Chemscore.Internal.Correction.Weighted>
   9.000000E+99

> <Gold.Protein.RotatedTorsions>
[ 6907 6896 6895 6894 ] final   -4.68 input  -60.11 | X-H torsion
[ 7974 7965 7964 7962 ] final  -58.68 input  175.53 | X-H torsion
[ 8008 7997 7996 7995 ] final -107.67 input   59.86 | X-H torsion
[ 10167 10162 10161 10158 ] final -142.23 input  -65.29 | X-H torsion
[ 10718 10713 10712 10709 ] final   -9.14 input   66.30 | X-H torsion
[ 10763 10752 10751 10750 ] final  -60.64 input  -60.55 | X-H torsion
[ 11005 11000 10999 10996 ] final  167.85 input  -57.11 | X-H torsion

> <Gold.Protein.ActiveResidues>
 VAL166  LYS551  ARG553  GLY616  TRP617  ASP618  TYR619  PRO620  LYS621  CYS622 
 ASP623  PHE694  ASN695  SER759  ASP760  ASP761  ALA762  ILE779  LEU786  VAL792 
 PHE793  MET794  SER795  GLU796  ALA797  LYS798  CYS799  TRP800  GLU811  SER814 

> <Gold.Protein.RotatedAtoms>
  151.4938  135.1059  159.9810 H   0  0  0  0  0  0  0  0  0  0  0  0  # atno 6907 bound_to 6896
  152.4730  133.8069  159.6993 H   0  0  0  0  0  0  0  0  0  0  0  0  # atno 6908 bound_to 6896
  150.8750  133.7389  159.2975 H   0  0  0  0  0  0  0  0  0  0  0  0  # atno 6909 bound_to 6896
  145.8365  140.8445  143.0056 H   0  0  0  0  0  0  0  0  0  0  0  0  # atno 7974 bound_to 7965
  154.9328  140.0404  157.2057 H   0  0  0  0  0  0  0  0  0  0  0  0  # atno 8008 bound_to 7997
  154.8144  140.2873  155.5809 H   0  0  0  0  0  0  0  0  0  0  0  0  # atno 8009 bound_to 7997
  156.2974  140.2531  156.3039 H   0  0  0  0  0  0  0  0  0  0  0  0  # atno 8010 bound_to 7997
  139.8108  143.7705  152.2663 H   0  0  0  0  0  0  0  0  0  0  0  0  # atno 10167 bound_to 10162
  156.6924  130.5069  149.5940 H   0  0  0  0  0  0  0  0  0  0  0  0  # atno 10718 bound_to 10713
  154.2723  135.6288  153.5315 H   0  0  0  0  0  0  0  0  0  0  0  0  # atno 10763 bound_to 10752
  152.9878  135.5613  154.5586 H   0  0  0  0  0  0  0  0  0  0  0  0  # atno 10764 bound_to 10752
  154.5159  135.2879  155.1279 H   0  0  0  0  0  0  0  0  0  0  0  0  # atno 10765 bound_to 10752
  140.2811  134.7750  157.3759 H   0  0  0  0  0  0  0  0  0  0  0  0  # atno 11005 bound_to 11000
  144.6736  140.0749  143.7471 LP  0  0  0  0  0  0  0  0  0  0  0  0  # atno 17320 bound_to 7965
  145.9513  139.2735  143.1210 LP  0  0  0  0  0  0  0  0  0  0  0  0  # atno 17321 bound_to 7965
  139.7853  144.7430  151.0030 LP  0  0  0  0  0  0  0  0  0  0  0  0  # atno 17342 bound_to 10162
  140.7818  143.4498  151.0429 LP  0  0  0  0  0  0  0  0  0  0  0  0  # atno 17343 bound_to 10162
  156.1788  130.6485  151.0927 LP  0  0  0  0  0  0  0  0  0  0  0  0  # atno 17370 bound_to 10713
  157.7004  131.0778  150.6838 LP  0  0  0  0  0  0  0  0  0  0  0  0  # atno 17371 bound_to 10713
  140.1283  134.5129  155.8126 LP  0  0  0  0  0  0  0  0  0  0  0  0  # atno 17394 bound_to 11000
  141.2162  133.6780  156.6992 LP  0  0  0  0  0  0  0  0  0  0  0  0  # atno 17395 bound_to 11000

$$$$
