AV-unprocessed.smi:1103|AV-procd|sdf|4771|dock6
  -GOLD-   22720 3313D 1   1.00000     0.00000
 Structure written by MMmdl.
 44 45  0  0  0  0  0  0  0  0  2 V2000
  146.9418  128.5956  151.5397 C   0  0  0  0  0  0  0  0  0  0  0  0
  147.5253  129.3676  152.7321 C   0  0  0  0  0  0  0  0  0  0  0  0
  147.5569  130.8340  152.5010 N   0  3  1  0  0  0  0  0  0  0  0  0
  146.2466  131.3548  152.0340 C   0  0  0  0  0  0  0  0  0  0  0  0
  146.3449  132.8425  151.6649 C   0  0  0  0  0  0  0  0  0  0  0  0
  146.8627  133.6662  152.8498 C   0  0  0  0  0  0  0  0  0  0  0  0
  148.2070  133.1063  153.3463 C   0  0  1  0  0  0  0  0  0  0  0  0
  148.7323  133.9244  154.5466 C   0  0  0  0  0  0  0  0  0  0  0  0
  148.6946  135.3650  154.3126 N   0  0  0  0  0  0  0  0  0  0  0  0
  148.3463  136.2847  155.2255 C   0  0  0  0  0  0  0  0  0  0  0  0
  148.0118  135.9958  156.3753 O   0  0  0  0  0  0  0  0  0  0  0  0
  148.3856  137.7441  154.7571 C   0  0  0  0  0  0  0  0  0  0  0  0
  149.7108  138.3301  154.8743 N   0  0  0  0  0  0  0  0  0  0  0  0
  150.8898  137.9096  154.2941 C   0  0  0  0  0  0  0  0  0  0  0  0
  151.8729  138.7723  154.6880 C   0  0  0  0  0  0  0  0  0  0  0  0
  153.3310  138.7582  154.3307 C   0  0  0  0  0  0  0  0  0  0  0  0
  151.1855  139.6976  155.5241 C   0  0  0  0  0  0  0  0  0  0  0  0
  149.8948  139.4299  155.6355 N   0  0  0  0  0  0  0  0  0  0  0  0
  148.0660  131.6015  153.6697 C   0  0  0  0  0  0  0  0  0  0  0  0
  146.8490  127.5360  151.7798 H   0  0  0  0  0  0  0  0  0  0  0  0
  147.5706  128.6697  150.6530 H   0  0  0  0  0  0  0  0  0  0  0  0
  145.9483  128.9630  151.2805 H   0  0  0  0  0  0  0  0  0  0  0  0
  146.8999  129.1536  153.5997 H   0  0  0  0  0  0  0  0  0  0  0  0
  148.5246  129.0043  152.9762 H   0  0  0  0  0  0  0  0  0  0  0  0
  145.9145  130.7929  151.1599 H   0  0  0  0  0  0  0  0  0  0  0  0
  145.4950  131.2067  152.8112 H   0  0  0  0  0  0  0  0  0  0  0  0
  147.0133  132.9657  150.8115 H   0  0  0  0  0  0  0  0  0  0  0  0
  145.3694  133.2145  151.3500 H   0  0  0  0  0  0  0  0  0  0  0  0
  146.9745  134.7095  152.5522 H   0  0  0  0  0  0  0  0  0  0  0  0
  146.1294  133.6486  153.6573 H   0  0  0  0  0  0  0  0  0  0  0  0
  148.9236  133.2071  152.5295 H   0  0  0  0  0  0  0  0  0  0  0  0
  148.1587  133.6904  155.4451 H   0  0  0  0  0  0  0  0  0  0  0  0
  149.7641  133.6465  154.7636 H   0  0  0  0  0  0  0  0  0  0  0  0
  148.9672  135.6870  153.3950 H   0  0  0  0  0  0  0  0  0  0  0  0
  148.0534  137.7978  153.7191 H   0  0  0  0  0  0  0  0  0  0  0  0
  147.6938  138.3448  155.3490 H   0  0  0  0  0  0  0  0  0  0  0  0
  150.9293  137.0421  153.6519 H   0  0  0  0  0  0  0  0  0  0  0  0
  153.8562  139.6232  154.7364 H   0  0  0  0  0  0  0  0  0  0  0  0
  153.4803  138.7700  153.2508 H   0  0  0  0  0  0  0  0  0  0  0  0
  153.8308  137.8694  154.7159 H   0  0  0  0  0  0  0  0  0  0  0  0
  151.5844  140.5522  156.0505 H   0  0  0  0  0  0  0  0  0  0  0  0
  147.3945  131.4599  154.5182 H   0  0  0  0  0  0  0  0  0  0  0  0
  149.0358  131.2056  153.9681 H   0  0  0  0  0  0  0  0  0  0  0  0
  148.2051  130.9888  151.7419 H   0  0  0  0  0  0  0  0  0  0  0  0
  1  2  1  0  0  0  0
  1 20  1  0  0  0  0
  1 21  1  0  0  0  0
  1 22  1  0  0  0  0
  2  3  1  0  0  0  0
  2 23  1  0  0  0  0
  2 24  1  0  0  0  0
  3 19  1  0  0  0  0
  3  4  1  0  0  0  0
  3 44  1  0  0  0  0
  4  5  1  0  0  0  0
  4 25  1  0  0  0  0
  4 26  1  0  0  0  0
  5  6  1  0  0  0  0
  5 27  1  0  0  0  0
  5 28  1  0  0  0  0
  6  7  1  0  0  0  0
  6 29  1  0  0  0  0
  6 30  1  0  0  0  0
  7  8  1  0  0  0  0
  7 19  1  0  0  0  0
  7 31  1  0  0  0  0
  8  9  1  0  0  0  0
  8 32  1  0  0  0  0
  8 33  1  0  0  0  0
  9 10  1  0  0  0  0
  9 34  1  0  0  0  0
 10 11  2  0  0  0  0
 10 12  1  0  0  0  0
 12 13  1  0  0  0  0
 12 35  1  0  0  0  0
 12 36  1  0  0  0  0
 13 18  1  0  0  0  0
 13 14  1  0  0  0  0
 14 15  2  0  0  0  0
 14 37  1  0  0  0  0
 15 16  1  0  0  0  0
 15 17  1  0  0  0  0
 16 38  1  0  0  0  0
 16 39  1  0  0  0  0
 16 40  1  0  0  0  0
 17 18  2  0  0  0  0
 17 41  1  0  0  0  0
 19 42  1  0  0  0  0
 19 43  1  0  0  0  0
M  CHG  1   3   1
M  END
> <s_m_source_file>
AV-unprocessed.smi

> <i_m_source_file_index>
1103

> <i_lp_mmshare_version>
43012

> <i_f3d_flags>
0

> <s_epik_input>
W0NIM11bQ0gyXU4xW0NIMl1bQ0gyXVtDSDJdW0NASF0oW0NIMl0xKVtDSDJdW05IXUMoPU8pW0NIMl1uMltjSF1jKFtDSDNdKVtjSF1uMg==

> <s_epik_cmdline>
J2VwaWtfcHl0aG9uJywgJy1waCcsICc3LjAnLCAnLXRuJywgJzgnLCAnLW1hJywgJzIwMCcsICctbWV0YWxfYmluZGluZycsICctaW1hZScsICc8aW5maWxlLm1hZT4nLCAnLW9tYWUnLCAnPG91dGZpbGUubWFlPic=

> <r_lp_tautomer_probability>
1

> <r_epik_Ionization_Penalty>
0.000672456

> <r_epik_Ionization_Penalty_Charging>
0.000647327

> <r_epik_Ionization_Penalty_Neutral>
2.51297e-05

> <r_epik_State_Penalty>
0.000409793

> <r_epik_Charging_Adjusted_Penalty>
0.00105712

> <i_epik_Tot_Q>
1

> <i_epik_Tot_abs_Q>
1

> <r_epik_Metal_State_Penalty>
-0

> <b_epik_Metal_Only>
0

> <s_lp_Force_Field>
OPLS_2005

> <r_lp_Energy>
19.0507

> <b_lp_Chiralities_Consistent>
1

> <s_lp_Variant>
AV-unprocessed.smi:1103-1

> <Gold.Version>
5.8.1

> <Gold.Id.Protein>
6NUR|6NUR_protein|mol2

> <Gold.PLP.Fitness>
42.5541

> <Gold.PLP.PLP>
-34.3396

> <Gold.PLP.part.hbond>
-2.0000

> <Gold.PLP.part.metal>
0.0000

> <Gold.PLP.part.buried>
-4.2194

> <Gold.PLP.part.nonpolar>
-28.9723

> <Gold.PLP.part.repulsive>
0.0537

> <Gold.PLP.ligand.clash>
0.0000

> <Gold.PLP.ligand.torsion>
0.5694

> <Gold.PLP.Chemscore.Hbond>
2.0000

> <Gold.PLP.Chemscore.CHOScore>
1.1022

> <Gold.PLP.Chemscore.Metal>
0.0000

> <Gold.Chemscore.Hbonds>
donor molecule, donor type, donor heavy atom, donor atom, acceptor molecule, acceptor atom, score
      L1  H     3    44       P1 10747  1.00
      L1  H     9    34       P1  7948  1.00
      L1  C    14    37       P1  7948  0.12
      L1  C    14    37       P1  7949  0.98

> <Gold.PLP.Chemscore.Internal.Correction>
0.0467

> <Gold.Rescore>
     Score         DG    S(hbond)    S(metal)    S(lipo)     H(rot)  DE(clash)    DE(int)     intcor
     17.21     -17.81       1.93        0.00      87.21       1.68       0.08       0.53       ----

> <Gold.Chemscore.Fitness>
17.2053

> <Gold.Chemscore.DG>
-17.8088

> <Gold.Chemscore.ZeroCoef>
-5.4800

> <Gold.Chemscore.Hbond>
1.9256

> <Gold.Chemscore.Metal>
0.0000

> <Gold.Chemscore.Lipo>
87.2131

> <Gold.Chemscore.Internal_Hbond>
0.0000

> <Gold.Chemscore.DEClash>
0.0779

> <Gold.Chemscore.DEInternal>
0.5256

> <Gold.Chemscore.Rot>
1.6823

> <Gold.Chemscore.Internal.Correction>
   9.000000E+99

> <Gold.Chemscore.Hbonds>
donor molecule, donor type, donor heavy atom, donor atom, acceptor molecule, acceptor atom, score
      L1  H     3    44       P1 10747  1.00
      L1  H     9    34       P1  7948  0.84

> <Gold.Chemscore.Hbond.Weighted>
-6.4315

> <Gold.Chemscore.Metal.Weighted>
-0.0000

> <Gold.Chemscore.Lipo.Weighted>
-10.2039

> <Gold.Chemscore.Internal_Hbond.Weighted>
0.0000

> <Gold.Chemscore.DEClash.Weighted>
0.0779

> <Gold.Chemscore.DEInternal.Weighted>
0.5256

> <Gold.Chemscore.Rot.Weighted>
4.3066

> <Gold.Chemscore.Internal.Correction.Weighted>
   9.000000E+99

> <Gold.Protein.RotatedTorsions>
[ 6907 6896 6895 6894 ] final   40.44 input  -60.11 | X-H torsion
[ 7974 7965 7964 7962 ] final  -92.66 input  175.53 | X-H torsion
[ 8008 7997 7996 7995 ] final  -48.21 input   59.86 | X-H torsion
[ 10167 10162 10161 10158 ] final   83.40 input  -65.29 | X-H torsion
[ 10718 10713 10712 10709 ] final  -99.46 input   66.30 | X-H torsion
[ 10763 10752 10751 10750 ] final  152.26 input  -60.55 | X-H torsion
[ 11005 11000 10999 10996 ] final  -18.41 input  -57.11 | X-H torsion

> <Gold.Protein.ActiveResidues>
 VAL166  LYS551  ARG553  GLY616  TRP617  ASP618  TYR619  PRO620  LYS621  CYS622 
 ASP623  PHE694  ASN695  SER759  ASP760  ASP761  ALA762  ILE779  LEU786  VAL792 
 PHE793  MET794  SER795  GLU796  ALA797  LYS798  CYS799  TRP800  GLU811  SER814 

> <Gold.Protein.RotatedAtoms>
  152.1825  134.8741  160.0524 H   0  0  0  0  0  0  0  0  0  0  0  0  # atno 6907 bound_to 6896
  151.9660  133.3705  159.4061 H   0  0  0  0  0  0  0  0  0  0  0  0  # atno 6908 bound_to 6896
  150.6920  134.4113  159.5207 H   0  0  0  0  0  0  0  0  0  0  0  0  # atno 6909 bound_to 6896
  145.3969  140.9533  143.2309 H   0  0  0  0  0  0  0  0  0  0  0  0  # atno 7974 bound_to 7965
  154.4026  140.1327  156.4302 H   0  0  0  0  0  0  0  0  0  0  0  0  # atno 8008 bound_to 7997
  155.7559  140.3487  155.5153 H   0  0  0  0  0  0  0  0  0  0  0  0  # atno 8009 bound_to 7997
  155.8905  140.1002  157.1412 H   0  0  0  0  0  0  0  0  0  0  0  0  # atno 8010 bound_to 7997
  139.9187  144.6226  150.8462 H   0  0  0  0  0  0  0  0  0  0  0  0  # atno 10167 bound_to 10162
  156.0134  130.5283  150.6673 H   0  0  0  0  0  0  0  0  0  0  0  0  # atno 10718 bound_to 10713
  154.1172  135.2835  155.3217 H   0  0  0  0  0  0  0  0  0  0  0  0  # atno 10763 bound_to 10752
  154.6448  135.5389  153.7835 H   0  0  0  0  0  0  0  0  0  0  0  0  # atno 10764 bound_to 10752
  153.0325  135.6495  154.1328 H   0  0  0  0  0  0  0  0  0  0  0  0  # atno 10765 bound_to 10752
  140.8265  133.8029  155.9713 H   0  0  0  0  0  0  0  0  0  0  0  0  # atno 11005 bound_to 11000
  144.8401  139.5486  143.6904 LP  0  0  0  0  0  0  0  0  0  0  0  0  # atno 17320 bound_to 7965
  146.2771  139.6780  142.9255 LP  0  0  0  0  0  0  0  0  0  0  0  0  # atno 17321 bound_to 7965
  140.7667  143.3312  151.2406 LP  0  0  0  0  0  0  0  0  0  0  0  0  # atno 17342 bound_to 10162
  139.6880  143.9741  152.2844 LP  0  0  0  0  0  0  0  0  0  0  0  0  # atno 17343 bound_to 10162
  157.4403  131.0860  151.0950 LP  0  0  0  0  0  0  0  0  0  0  0  0  # atno 17370 bound_to 10713
  157.1496  130.6178  149.5578 LP  0  0  0  0  0  0  0  0  0  0  0  0  # atno 17371 bound_to 10713
  140.9044  134.2339  157.5023 LP  0  0  0  0  0  0  0  0  0  0  0  0  # atno 17394 bound_to 11000
  139.8706  134.9721  156.4761 LP  0  0  0  0  0  0  0  0  0  0  0  0  # atno 17395 bound_to 11000

$$$$
