AV-unprocessed.smi:2732|AV-procd|sdf|10533|dock2
  -GOLD-   2272014573D 1   1.00000     0.00000
 Structure written by MMmdl.
 34 35  0  0  0  0  0  0  0  0  1 V2000
  154.2293  141.0580  161.2153 C   0  0  0  0  0  0  0  0  0  0  0  0
  153.0829  141.3717  160.2426 C   0  0  1  0  0  0  0  0  0  0  0  0
  153.2135  142.7359  159.8513 O   0  0  0  0  0  0  0  0  0  0  0  0
  152.4626  143.6648  160.6233 C   0  0  0  0  0  0  0  0  0  0  0  0
  151.8321  144.6744  159.6894 C   0  0  0  0  0  0  0  0  0  0  0  0
  151.1381  144.2194  158.4255 C   0  0  0  0  0  0  0  0  0  0  0  0
  152.4485  144.9595  158.3385 C   0  0  0  0  0  0  0  0  0  0  0  0
  153.1308  140.4563  159.0080 C   0  0  0  0  0  0  0  0  0  0  0  0
  154.0455  139.6413  158.8943 O   0  0  0  0  0  0  0  0  0  0  0  0
  152.1459  140.6430  158.1090 N   0  0  0  0  0  0  0  0  0  0  0  0
  151.9065  139.9868  156.8691 C   0  0  0  0  0  0  0  0  0  0  0  0
  152.2438  138.6415  156.5800 C   0  0  0  0  0  0  0  0  0  0  0  0
  151.9436  138.1227  155.3053 C   0  0  0  0  0  0  0  0  0  0  0  0
  151.3156  138.9629  154.3651 C   0  0  0  0  0  0  0  0  0  0  0  0
  151.0056  138.4828  153.0952 N   0  0  0  0  0  0  0  0  0  0  0  0
  150.9851  140.2438  154.6282 N   0  0  0  0  0  0  0  0  0  0  0  0
  151.2757  140.7346  155.8519 C   0  0  0  0  0  0  0  0  0  0  0  0
  154.1972  140.0184  161.5434 H   0  0  0  0  0  0  0  0  0  0  0  0
  154.1630  141.6854  162.1044 H   0  0  0  0  0  0  0  0  0  0  0  0
  155.2041  141.2368  160.7597 H   0  0  0  0  0  0  0  0  0  0  0  0
  152.1376  141.2366  160.7721 H   0  0  0  0  0  0  0  0  0  0  0  0
  151.6811  143.1704  161.2016 H   0  0  0  0  0  0  0  0  0  0  0  0
  153.1154  144.1893  161.3222 H   0  0  0  0  0  0  0  0  0  0  0  0
  151.3781  145.5219  160.1995 H   0  0  0  0  0  0  0  0  0  0  0  0
  151.1469  143.1558  158.1950 H   0  0  0  0  0  0  0  0  0  0  0  0
  150.2389  144.7538  158.1260 H   0  0  0  0  0  0  0  0  0  0  0  0
  152.4243  145.9880  157.9836 H   0  0  0  0  0  0  0  0  0  0  0  0
  153.3305  144.3889  158.0537 H   0  0  0  0  0  0  0  0  0  0  0  0
  151.4846  141.3708  158.3390 H   0  0  0  0  0  0  0  0  0  0  0  0
  152.7192  137.9918  157.2964 H   0  0  0  0  0  0  0  0  0  0  0  0
  152.1917  137.1004  155.0598 H   0  0  0  0  0  0  0  0  0  0  0  0
  151.2198  137.5351  152.8209 H   0  0  0  0  0  0  0  0  0  0  0  0
  150.5484  139.0673  152.4100 H   0  0  0  0  0  0  0  0  0  0  0  0
  150.9946  141.7635  156.0232 H   0  0  0  0  0  0  0  0  0  0  0  0
  1  2  1  0  0  0  0
  1 18  1  0  0  0  0
  1 19  1  0  0  0  0
  1 20  1  0  0  0  0
  2  3  1  0  0  0  0
  2  8  1  0  0  0  0
  2 21  1  0  0  0  0
  3  4  1  0  0  0  0
  4  5  1  0  0  0  0
  4 22  1  0  0  0  0
  4 23  1  0  0  0  0
  5  7  1  0  0  0  0
  5  6  1  0  0  0  0
  5 24  1  0  0  0  0
  6  7  1  0  0  0  0
  6 25  1  0  0  0  0
  6 26  1  0  0  0  0
  7 27  1  0  0  0  0
  7 28  1  0  0  0  0
  8  9  2  0  0  0  0
  8 10  1  0  0  0  0
 10 11  1  0  0  0  0
 10 29  1  0  0  0  0
 11 17  1  0  0  0  0
 11 12  2  0  0  0  0
 12 13  1  0  0  0  0
 12 30  1  0  0  0  0
 13 14  2  0  0  0  0
 13 31  1  0  0  0  0
 14 15  1  0  0  0  0
 14 16  1  0  0  0  0
 15 32  1  0  0  0  0
 15 33  1  0  0  0  0
 16 17  2  0  0  0  0
 17 34  1  0  0  0  0
M  END
> <s_m_source_file>
AV-unprocessed.smi

> <i_m_source_file_index>
2732

> <i_lp_mmshare_version>
43012

> <i_f3d_flags>
0

> <s_epik_input>
W0NIMl0xW0NIMl1bQ0hdMVtDSDJdT1tDQEBIXShbQ0gzXSlDKD1PKVtOSF1jMltjSF1bY0hdYyhbTkgyXSluW2NIXTI=

> <s_epik_cmdline>
J2VwaWtfcHl0aG9uJywgJy1waCcsICc3LjAnLCAnLXRuJywgJzgnLCAnLW1hJywgJzIwMCcsICctbWV0YWxfYmluZGluZycsICctaW1hZScsICc8aW5maWxlLm1hZT4nLCAnLW9tYWUnLCAnPG91dGZpbGUubWFlPic=

> <r_lp_tautomer_probability>
1

> <r_epik_Ionization_Penalty>
0.0764773

> <r_epik_Ionization_Penalty_Charging>
0

> <r_epik_Ionization_Penalty_Neutral>
0.0764773

> <r_epik_State_Penalty>
0.0673619

> <r_epik_Charging_Adjusted_Penalty>
0.0673619

> <i_epik_Tot_Q>
0

> <i_epik_Tot_abs_Q>
0

> <r_epik_Metal_State_Penalty>
0.0594329

> <b_epik_Metal_Only>
0

> <s_lp_Force_Field>
OPLS_2005

> <r_lp_Energy>
18.9716

> <b_lp_Chiralities_Consistent>
1

> <s_lp_Variant>
AV-unprocessed.smi:2732-2

> <Gold.Version>
5.8.1

> <Gold.Id.Protein>
6NUR|6NUR_protein|mol2

> <Gold.PLP.Fitness>
48.6002

> <Gold.PLP.PLP>
-38.6056

> <Gold.PLP.part.hbond>
-4.9726

> <Gold.PLP.part.metal>
0.0000

> <Gold.PLP.part.buried>
-0.9555

> <Gold.PLP.part.nonpolar>
-31.3992

> <Gold.PLP.part.repulsive>
0.2934

> <Gold.PLP.ligand.clash>
0.0000

> <Gold.PLP.ligand.torsion>
1.2538

> <Gold.PLP.Chemscore.Hbond>
3.9675

> <Gold.PLP.Chemscore.CHOScore>
0.0000

> <Gold.PLP.Chemscore.Metal>
0.0000

> <Gold.Chemscore.Hbonds>
donor molecule, donor type, donor heavy atom, donor atom, acceptor molecule, acceptor atom, score
      L1  H    15    32       P1  7949  0.99
      L1  H    15    33       P1  7957  0.75
      P1  H  7989  7998       L1    16  0.74
      P1  H  7997  8010       L1     9  1.00

> <Gold.PLP.Chemscore.Internal.Correction>
0.5998

> <Gold.Rescore>
     Score         DG    S(hbond)    S(metal)    S(lipo)     H(rot)  DE(clash)    DE(int)     intcor
     15.90     -19.08       2.13        0.00      93.23       1.72       1.94       1.24       ----

> <Gold.Chemscore.Fitness>
15.8970

> <Gold.Chemscore.DG>
-19.0800

> <Gold.Chemscore.ZeroCoef>
-5.4800

> <Gold.Chemscore.Hbond>
2.1272

> <Gold.Chemscore.Metal>
0.0000

> <Gold.Chemscore.Lipo>
93.2309

> <Gold.Chemscore.Internal_Hbond>
0.0000

> <Gold.Chemscore.DEClash>
1.9428

> <Gold.Chemscore.DEInternal>
1.2402

> <Gold.Chemscore.Rot>
1.7237

> <Gold.Chemscore.Internal.Correction>
   9.000000E+99

> <Gold.Chemscore.Hbonds>
donor molecule, donor type, donor heavy atom, donor atom, acceptor molecule, acceptor atom, score
      L1  H    15    32       P1  7949  0.49
      L1  H    15    33       P1  7957  0.09
      P1  H  7989  7998       L1    16  0.16
      P1  H  7997  8010       L1     9  0.65

> <Gold.Chemscore.Hbond.Weighted>
-7.1047

> <Gold.Chemscore.Metal.Weighted>
-0.0000

> <Gold.Chemscore.Lipo.Weighted>
-10.9080

> <Gold.Chemscore.Internal_Hbond.Weighted>
0.0000

> <Gold.Chemscore.DEClash.Weighted>
1.9428

> <Gold.Chemscore.DEInternal.Weighted>
1.2402

> <Gold.Chemscore.Rot.Weighted>
4.4127

> <Gold.Chemscore.Internal.Correction.Weighted>
   9.000000E+99

> <Gold.Protein.RotatedTorsions>
[ 6907 6896 6895 6894 ] final  170.57 input  -60.11 | X-H torsion
[ 7974 7965 7964 7962 ] final -165.78 input  175.53 | X-H torsion
[ 8008 7997 7996 7995 ] final    6.38 input   59.86 | X-H torsion
[ 10167 10162 10161 10158 ] final  -97.61 input  -65.29 | X-H torsion
[ 10718 10713 10712 10709 ] final -109.54 input   66.30 | X-H torsion
[ 10763 10752 10751 10750 ] final  -80.40 input  -60.55 | X-H torsion
[ 11005 11000 10999 10996 ] final  -43.27 input  -57.11 | X-H torsion

> <Gold.Protein.ActiveResidues>
 VAL166  LYS551  ARG553  GLY616  TRP617  ASP618  TYR619  PRO620  LYS621  CYS622 
 ASP623  PHE694  ASN695  SER759  ASP760  ASP761  ALA762  ILE779  LEU786  VAL792 
 PHE793  MET794  SER795  GLU796  ALA797  LYS798  CYS799  TRP800  GLU811  SER814 

> <Gold.Protein.RotatedAtoms>
  151.8140  133.3385  159.3563 H   0  0  0  0  0  0  0  0  0  0  0  0  # atno 6907 bound_to 6896
  150.7316  134.5636  159.5864 H   0  0  0  0  0  0  0  0  0  0  0  0  # atno 6908 bound_to 6896
  152.3054  134.7562  160.0400 H   0  0  0  0  0  0  0  0  0  0  0  0  # atno 6909 bound_to 6896
  144.7261  140.2764  143.6243 H   0  0  0  0  0  0  0  0  0  0  0  0  # atno 7974 bound_to 7965
  154.7402  140.2747  155.6379 H   0  0  0  0  0  0  0  0  0  0  0  0  # atno 8008 bound_to 7997
  156.2872  140.2698  156.2053 H   0  0  0  0  0  0  0  0  0  0  0  0  # atno 8009 bound_to 7997
  155.0268  140.0371  157.2448 H   0  0  0  0  0  0  0  0  0  0  0  0  # atno 8010 bound_to 7997
  140.2816  143.3278  152.0436 H   0  0  0  0  0  0  0  0  0  0  0  0  # atno 10167 bound_to 10162
  156.0542  130.5769  150.8113 H   0  0  0  0  0  0  0  0  0  0  0  0  # atno 10718 bound_to 10713
  154.5507  135.5662  153.6919 H   0  0  0  0  0  0  0  0  0  0  0  0  # atno 10763 bound_to 10752
  152.9989  135.6250  154.2378 H   0  0  0  0  0  0  0  0  0  0  0  0  # atno 10764 bound_to 10752
  154.2312  135.2866  155.2869 H   0  0  0  0  0  0  0  0  0  0  0  0  # atno 10765 bound_to 10752
  141.0372  133.6795  156.2710 H   0  0  0  0  0  0  0  0  0  0  0  0  # atno 11005 bound_to 11000
  145.7992  139.1957  143.2057 LP  0  0  0  0  0  0  0  0  0  0  0  0  # atno 17320 bound_to 7965
  146.0690  140.7889  142.9697 LP  0  0  0  0  0  0  0  0  0  0  0  0  # atno 17321 bound_to 7965
  139.4961  144.6588  151.6512 LP  0  0  0  0  0  0  0  0  0  0  0  0  # atno 17342 bound_to 10162
  140.5807  143.9951  150.6267 LP  0  0  0  0  0  0  0  0  0  0  0  0  # atno 17343 bound_to 10162
  157.5497  131.0943  150.9713 LP  0  0  0  0  0  0  0  0  0  0  0  0  # atno 17370 bound_to 10713
  156.9975  130.5587  149.5308 LP  0  0  0  0  0  0  0  0  0  0  0  0  # atno 17371 bound_to 10713
  140.6300  134.5274  157.5558 LP  0  0  0  0  0  0  0  0  0  0  0  0  # atno 17394 bound_to 11000
  139.9249  134.8075  156.1098 LP  0  0  0  0  0  0  0  0  0  0  0  0  # atno 17395 bound_to 11000

$$$$
