AV-unprocessed.smi:1809|AV-procd|sdf|7319|dock7
  -GOLD-   22720 8573D 1   1.00000     0.00000
 Structure written by MMmdl.
 39 41  0  0  0  0  0  0  0  0  1 V2000
  146.2641  129.7546  152.7292 C   0  0  0  0  0  0  0  0  0  0  0  0
  147.1455  130.8380  153.2501 C   0  0  0  0  0  0  0  0  0  0  0  0
  147.9571  130.6709  154.3015 N   0  0  0  0  0  0  0  0  0  0  0  0
  148.6729  131.8214  154.6018 N   0  0  0  0  0  0  0  0  0  0  0  0
  148.3778  132.8262  153.7656 C   0  0  0  0  0  0  0  0  0  0  0  0
  148.9637  134.1174  153.8449 N   0  0  0  0  0  0  0  0  0  0  0  0
  149.7516  134.6171  154.8133 C   0  0  0  0  0  0  0  0  0  0  0  0
  150.1059  134.0115  155.8249 O   0  0  0  0  0  0  0  0  0  0  0  0
  150.1083  135.8804  154.5413 N   0  0  0  0  0  0  0  0  0  0  0  0
  150.9235  136.7332  155.4004 C   0  0  0  0  0  0  0  0  0  0  0  0
  151.5145  137.9217  154.6132 C   0  0  2  0  0  0  0  0  0  0  0  0
  152.2434  138.9422  155.5200 C   0  0  0  0  0  0  0  0  0  0  0  0
  151.2906  139.7612  156.2452 N   0  0  0  0  0  0  0  0  0  0  0  0
  151.8340  140.8231  157.0603 C   0  0  0  0  0  0  0  0  0  0  0  0
  150.6289  141.7343  157.3492 C   0  0  0  0  0  0  0  0  0  0  0  0
  149.6130  141.3924  156.2371 C   0  0  0  0  0  0  0  0  0  0  0  0
  150.3987  140.4334  155.3403 C   0  0  2  0  0  0  0  0  0  0  0  0
  149.5961  139.4170  154.5186 C   0  0  0  0  0  0  0  0  0  0  0  0
  150.5177  138.5787  153.8134 O   0  0  0  0  0  0  0  0  0  0  0  0
  147.1931  132.4421  152.5286 S   0  0  0  0  0  0  0  0  0  0  0  0
  146.5219  128.7969  153.1825 H   0  0  0  0  0  0  0  0  0  0  0  0
  146.3755  129.6696  151.6482 H   0  0  0  0  0  0  0  0  0  0  0  0
  145.2227  129.9811  152.9578 H   0  0  0  0  0  0  0  0  0  0  0  0
  148.7504  134.7369  153.0775 H   0  0  0  0  0  0  0  0  0  0  0  0
  149.7709  136.2942  153.6847 H   0  0  0  0  0  0  0  0  0  0  0  0
  150.3624  137.0710  156.2727 H   0  0  0  0  0  0  0  0  0  0  0  0
  151.7351  136.1178  155.7888 H   0  0  0  0  0  0  0  0  0  0  0  0
  152.2521  137.5159  153.9198 H   0  0  0  0  0  0  0  0  0  0  0  0
  152.9073  138.4299  156.2171 H   0  0  0  0  0  0  0  0  0  0  0  0
  152.8753  139.5807  154.9009 H   0  0  0  0  0  0  0  0  0  0  0  0
  152.2969  140.4371  157.9689 H   0  0  0  0  0  0  0  0  0  0  0  0
  152.5915  141.3765  156.5025 H   0  0  0  0  0  0  0  0  0  0  0  0
  150.2032  141.5182  158.3297 H   0  0  0  0  0  0  0  0  0  0  0  0
  150.9174  142.7857  157.3331 H   0  0  0  0  0  0  0  0  0  0  0  0
  148.7408  140.8962  156.6649 H   0  0  0  0  0  0  0  0  0  0  0  0
  149.2704  142.2741  155.6946 H   0  0  0  0  0  0  0  0  0  0  0  0
  150.9887  141.0370  154.6471 H   0  0  0  0  0  0  0  0  0  0  0  0
  148.9490  138.8198  155.1610 H   0  0  0  0  0  0  0  0  0  0  0  0
  148.9529  139.9246  153.7999 H   0  0  0  0  0  0  0  0  0  0  0  0
  1  2  1  0  0  0  0
  1 21  1  0  0  0  0
  1 22  1  0  0  0  0
  1 23  1  0  0  0  0
  2 20  1  0  0  0  0
  2  3  2  0  0  0  0
  3  4  1  0  0  0  0
  4  5  2  0  0  0  0
  5  6  1  0  0  0  0
  5 20  1  0  0  0  0
  6  7  1  0  0  0  0
  6 24  1  0  0  0  0
  7  8  2  0  0  0  0
  7  9  1  0  0  0  0
  9 10  1  0  0  0  0
  9 25  1  0  0  0  0
 10 11  1  0  0  0  0
 10 26  1  0  0  0  0
 10 27  1  0  0  0  0
 11 19  1  0  0  0  0
 11 12  1  0  0  0  0
 11 28  1  0  0  0  0
 12 13  1  0  0  0  0
 12 29  1  0  0  0  0
 12 30  1  0  0  0  0
 13 17  1  0  0  0  0
 13 14  1  0  0  0  0
 14 15  1  0  0  0  0
 14 31  1  0  0  0  0
 14 32  1  0  0  0  0
 15 16  1  0  0  0  0
 15 33  1  0  0  0  0
 15 34  1  0  0  0  0
 16 17  1  0  0  0  0
 16 35  1  0  0  0  0
 16 36  1  0  0  0  0
 17 18  1  0  0  0  0
 17 37  1  0  0  0  0
 18 19  1  0  0  0  0
 18 38  1  0  0  0  0
 18 39  1  0  0  0  0
M  END
> <s_m_source_file>
AV-unprocessed.smi

> <i_m_source_file_index>
1809

> <i_lp_mmshare_version>
43012

> <i_f3d_flags>
0

> <s_epik_input>
W0NIM11jMW5uYyhzMSlbTkhdQyg9TylbTkhdW0NIMl1bQ0BIXShbQ0gyXTIpT1tDSDJdW0NAQEhdKE4yMylbQ0gyXVtDSDJdW0NIMl0z

> <s_epik_cmdline>
J2VwaWtfcHl0aG9uJywgJy1waCcsICc3LjAnLCAnLXRuJywgJzgnLCAnLW1hJywgJzIwMCcsICctbWV0YWxfYmluZGluZycsICctaW1hZScsICc8aW5maWxlLm1hZT4nLCAnLW9tYWUnLCAnPG91dGZpbGUubWFlPic=

> <r_lp_tautomer_probability>
1

> <r_epik_Ionization_Penalty>
1.05954

> <r_epik_Ionization_Penalty_Charging>
0

> <r_epik_Ionization_Penalty_Neutral>
1.05954

> <r_epik_State_Penalty>
1.4238

> <r_epik_Charging_Adjusted_Penalty>
1.4238

> <i_epik_Tot_Q>
0

> <i_epik_Tot_abs_Q>
0

> <r_epik_Metal_State_Penalty>
1.7901

> <b_epik_Metal_Only>
0

> <s_lp_Force_Field>
OPLS_2005

> <r_lp_Energy>
48.8115

> <b_lp_Chiralities_Consistent>
1

> <s_lp_Variant>
AV-unprocessed.smi:1809-11

> <Gold.Version>
5.8.1

> <Gold.Id.Protein>
6NUR|6NUR_protein|mol2

> <Gold.PLP.Fitness>
38.6667

> <Gold.PLP.PLP>
-33.0414

> <Gold.PLP.part.hbond>
-2.7245

> <Gold.PLP.part.metal>
0.0000

> <Gold.PLP.part.buried>
-4.2740

> <Gold.PLP.part.nonpolar>
-25.8494

> <Gold.PLP.part.repulsive>
0.9329

> <Gold.PLP.ligand.clash>
0.0000

> <Gold.PLP.ligand.torsion>
0.1921

> <Gold.PLP.Chemscore.Hbond>
2.0000

> <Gold.PLP.Chemscore.CHOScore>
0.0000

> <Gold.PLP.Chemscore.Metal>
0.0000

> <Gold.Chemscore.Hbonds>
donor molecule, donor type, donor heavy atom, donor atom, acceptor molecule, acceptor atom, score
      L1  H     6    24       P1  7948  0.95
      L1  H     9    25       P1  7948  1.00

> <Gold.PLP.Chemscore.Internal.Correction>
0.0095

> <Gold.Rescore>
     Score         DG    S(hbond)    S(metal)    S(lipo)     H(rot)  DE(clash)    DE(int)     intcor
     13.04     -14.53       1.44        0.00      65.02       1.32       0.11       1.37       ----

> <Gold.Chemscore.Fitness>
13.0407

> <Gold.Chemscore.DG>
-14.5260

> <Gold.Chemscore.ZeroCoef>
-5.4800

> <Gold.Chemscore.Hbond>
1.4423

> <Gold.Chemscore.Metal>
0.0000

> <Gold.Chemscore.Lipo>
65.0157

> <Gold.Chemscore.Internal_Hbond>
0.0000

> <Gold.Chemscore.DEClash>
0.1124

> <Gold.Chemscore.DEInternal>
1.3729

> <Gold.Chemscore.Rot>
1.3196

> <Gold.Chemscore.Internal.Correction>
   9.000000E+99

> <Gold.Chemscore.Hbonds>
donor molecule, donor type, donor heavy atom, donor atom, acceptor molecule, acceptor atom, score
      L1  H     6    24       P1  7948  0.21
      L1  H     9    25       P1  7948  0.29

> <Gold.Chemscore.Hbond.Weighted>
-4.8174

> <Gold.Chemscore.Metal.Weighted>
-0.0000

> <Gold.Chemscore.Lipo.Weighted>
-7.6068

> <Gold.Chemscore.Internal_Hbond.Weighted>
0.0000

> <Gold.Chemscore.DEClash.Weighted>
0.1124

> <Gold.Chemscore.DEInternal.Weighted>
1.3729

> <Gold.Chemscore.Rot.Weighted>
3.3783

> <Gold.Chemscore.Internal.Correction.Weighted>
   9.000000E+99

> <Gold.Protein.RotatedTorsions>
[ 6907 6896 6895 6894 ] final  -99.56 input  -60.11 | X-H torsion
[ 7974 7965 7964 7962 ] final -107.69 input  175.53 | X-H torsion
[ 8008 7997 7996 7995 ] final   16.56 input   59.86 | X-H torsion
[ 10167 10162 10161 10158 ] final -123.06 input  -65.29 | X-H torsion
[ 10718 10713 10712 10709 ] final  111.57 input   66.30 | X-H torsion
[ 10763 10752 10751 10750 ] final   65.17 input  -60.55 | X-H torsion
[ 11005 11000 10999 10996 ] final  -47.77 input  -57.11 | X-H torsion

> <Gold.Protein.ActiveResidues>
 VAL166  LYS551  ARG553  GLY616  TRP617  ASP618  TYR619  PRO620  LYS621  CYS622 
 ASP623  PHE694  ASN695  SER759  ASP760  ASP761  ALA762  ILE779  LEU786  VAL792 
 PHE793  MET794  SER795  GLU796  ALA797  LYS798  CYS799  TRP800  GLU811  SER814 

> <Gold.Protein.RotatedAtoms>
  150.7084  134.1021  159.3969 H   0  0  0  0  0  0  0  0  0  0  0  0  # atno 6907 bound_to 6896
  151.9008  135.0377  160.0515 H   0  0  0  0  0  0  0  0  0  0  0  0  # atno 6908 bound_to 6896
  152.2416  133.5104  159.5310 H   0  0  0  0  0  0  0  0  0  0  0  0  # atno 6909 bound_to 6896
  145.2022  140.9061  143.3363 H   0  0  0  0  0  0  0  0  0  0  0  0  # atno 7974 bound_to 7965
  154.8788  140.2970  155.5437 H   0  0  0  0  0  0  0  0  0  0  0  0  # atno 8008 bound_to 7997
  156.3022  140.2446  156.3721 H   0  0  0  0  0  0  0  0  0  0  0  0  # atno 8009 bound_to 7997
  154.8739  140.0400  157.1730 H   0  0  0  0  0  0  0  0  0  0  0  0  # atno 8010 bound_to 7997
  140.0075  143.5476  152.2277 H   0  0  0  0  0  0  0  0  0  0  0  0  # atno 10167 bound_to 10162
  157.6437  131.0953  150.6769 H   0  0  0  0  0  0  0  0  0  0  0  0  # atno 10718 bound_to 10713
  153.0085  135.5366  154.6625 H   0  0  0  0  0  0  0  0  0  0  0  0  # atno 10763 bound_to 10752
  154.5830  135.2851  155.0715 H   0  0  0  0  0  0  0  0  0  0  0  0  # atno 10764 bound_to 10752
  154.1837  135.6512  153.5093 H   0  0  0  0  0  0  0  0  0  0  0  0  # atno 10765 bound_to 10752
  141.0661  133.6693  156.3345 H   0  0  0  0  0  0  0  0  0  0  0  0  # atno 11005 bound_to 11000
  144.9937  139.3665  143.6202 LP  0  0  0  0  0  0  0  0  0  0  0  0  # atno 17320 bound_to 7965
  146.3415  139.9130  142.8777 LP  0  0  0  0  0  0  0  0  0  0  0  0  # atno 17321 bound_to 7965
  139.6228  144.7632  151.2703 LP  0  0  0  0  0  0  0  0  0  0  0  0  # atno 17342 bound_to 10162
  140.7394  143.6618  150.8158 LP  0  0  0  0  0  0  0  0  0  0  0  0  # atno 17343 bound_to 10162
  156.7089  130.4646  149.5552 LP  0  0  0  0  0  0  0  0  0  0  0  0  # atno 17370 bound_to 10713
  156.1744  130.6458  151.0876 LP  0  0  0  0  0  0  0  0  0  0  0  0  # atno 17371 bound_to 10713
  140.5771  134.5783  157.5471 LP  0  0  0  0  0  0  0  0  0  0  0  0  # atno 17394 bound_to 11000
  139.9478  134.7672  156.0521 LP  0  0  0  0  0  0  0  0  0  0  0  0  # atno 17395 bound_to 11000

$$$$
