AV-unprocessed.smi:38|AV-procd|sdf|341|dock1
  -GOLD-   2262016173D 1   1.00000     0.00000
 Structure written by MMmdl.
 28 29  0  0  0  0  0  0  0  0  1 V2000
  152.6927  143.3764  160.7489 O   0  0  0  0  0  0  0  0  0  0  0  0
  152.3334  142.8286  159.7086 C   0  0  0  0  0  0  0  0  0  0  0  0
  152.7637  141.5317  159.4125 N   0  0  0  0  0  0  0  0  0  0  0  0
  152.4260  140.8054  158.2689 C   0  0  0  0  0  0  0  0  0  0  0  0
  152.8518  139.6605  158.1230 O   0  0  0  0  0  0  0  0  0  0  0  0
  151.5861  141.4407  157.3271 N   0  0  0  0  0  0  0  0  0  0  0  0
  151.1879  140.7074  156.0668 C   0  0  1  0  0  0  0  0  0  0  0  0
  150.7045  139.2926  156.3877 C   0  0  0  0  0  0  0  0  0  0  0  0
  149.5591  139.1406  155.4090 C   0  0  1  0  0  0  0  0  0  0  0  0
  148.6283  138.1809  155.8665 O   0  0  0  0  0  0  0  0  0  0  0  0
  148.9752  140.5557  155.3815 C   0  0  2  0  0  0  0  0  0  0  0  0
  148.1910  140.8697  154.0984 C   0  0  0  0  0  0  0  0  0  0  0  0
  149.0767  141.2703  153.0750 O   0  0  0  0  0  0  0  0  0  0  0  0
  150.1312  141.3902  155.4579 O   0  0  0  0  0  0  0  0  0  0  0  0
  151.1256  142.7251  157.5849 C   0  0  0  0  0  0  0  0  0  0  0  0
  151.4570  143.4174  158.7003 C   0  0  0  0  0  0  0  0  0  0  0  0
  150.9702  144.6568  158.8820 F   0  0  0  0  0  0  0  0  0  0  0  0
  153.3673  141.0813  160.0848 H   0  0  0  0  0  0  0  0  0  0  0  0
  152.0323  140.7313  155.3764 H   0  0  0  0  0  0  0  0  0  0  0  0
  149.9405  138.8601  154.4259 H   0  0  0  0  0  0  0  0  0  0  0  0
  148.3574  140.7115  156.2679 H   0  0  0  0  0  0  0  0  0  0  0  0
  151.5017  138.5603  156.2569 H   0  0  0  0  0  0  0  0  0  0  0  0
  150.3446  139.2490  157.4175 H   0  0  0  0  0  0  0  0  0  0  0  0
  147.7563  138.5250  155.7461 H   0  0  0  0  0  0  0  0  0  0  0  0
  147.5978  140.0135  153.7755 H   0  0  0  0  0  0  0  0  0  0  0  0
  147.5009  141.6954  154.2736 H   0  0  0  0  0  0  0  0  0  0  0  0
  149.2460  140.5275  152.5160 H   0  0  0  0  0  0  0  0  0  0  0  0
  150.4687  143.2041  156.8748 H   0  0  0  0  0  0  0  0  0  0  0  0
  1  2  2  0  0  0  0
  2 16  1  0  0  0  0
  2  3  1  0  0  0  0
  3 18  1  0  0  0  0
  3  4  1  0  0  0  0
  4  5  2  0  0  0  0
  4  6  1  0  0  0  0
  6  7  1  0  0  0  0
  6 15  1  0  0  0  0
  7 19  1  0  0  0  0
  7 14  1  0  0  0  0
  7  8  1  0  0  0  0
  8  9  1  0  0  0  0
  8 22  1  0  0  0  0
  8 23  1  0  0  0  0
  9 20  1  0  0  0  0
  9 10  1  0  0  0  0
  9 11  1  0  0  0  0
 10 24  1  0  0  0  0
 11 21  1  0  0  0  0
 11 12  1  0  0  0  0
 11 14  1  0  0  0  0
 12 13  1  0  0  0  0
 12 25  1  0  0  0  0
 12 26  1  0  0  0  0
 13 27  1  0  0  0  0
 15 16  2  0  0  0  0
 15 28  1  0  0  0  0
 16 17  1  0  0  0  0
M  END
> <s_m_source_file>
AV-unprocessed.smi

> <i_m_source_file_index>
38

> <i_lp_mmshare_version>
43012

> <i_f3d_flags>
0

> <s_epik_input>
Tz1jMVtuSF1jKD1PKW4oW2NIXWMxRilbQ0BIXTJbQ0gyXVtDQEhdKFtPSF0pW0NASF0oTzIpW0NIMl1bT0hd

> <s_epik_cmdline>
J2VwaWtfcHl0aG9uJywgJy1waCcsICc3LjAnLCAnLXRuJywgJzgnLCAnLW1hJywgJzIwMCcsICctbWV0YWxfYmluZGluZycsICctaW1hZScsICc8aW5maWxlLm1hZT4nLCAnLW9tYWUnLCAnPG91dGZpbGUubWFlPic=

> <r_lp_tautomer_probability>
0.999537

> <r_epik_Ionization_Penalty>
0.0357432

> <r_epik_Ionization_Penalty_Charging>
0.0357431

> <r_epik_Ionization_Penalty_Neutral>
1.19946e-07

> <r_epik_State_Penalty>
0.0298169

> <r_epik_Charging_Adjusted_Penalty>
0.06556

> <i_epik_Tot_Q>
0

> <i_epik_Tot_abs_Q>
0

> <r_epik_Metal_State_Penalty>
2.348

> <b_epik_Metal_Only>
0

> <s_epik_Chemistry_Notes>
This compound contains an acetal/aminal-like group ( X-CH(R)-Y where X, Y are N, S, or O) that may be acid/base labile, releasing an aldehyde.

> <s_lp_Force_Field>
OPLS_2005

> <r_lp_Energy>
27.15

> <b_lp_Chiralities_Consistent>
1

> <s_lp_Variant>
AV-unprocessed.smi:38-7

> <Gold.Version>
5.8.1

> <Gold.Id.Protein>
6NUR|6NUR_protein|mol2

> <Gold.PLP.Fitness>
38.6451

> <Gold.PLP.PLP>
-28.2515

> <Gold.PLP.part.hbond>
-3.6966

> <Gold.PLP.part.metal>
0.0000

> <Gold.PLP.part.buried>
-5.1727

> <Gold.PLP.part.nonpolar>
-20.3269

> <Gold.PLP.part.repulsive>
0.2374

> <Gold.PLP.ligand.clash>
0.0000

> <Gold.PLP.ligand.torsion>
0.5671

> <Gold.PLP.Chemscore.Hbond>
2.9357

> <Gold.PLP.Chemscore.CHOScore>
0.9036

> <Gold.PLP.Chemscore.Metal>
0.0000

> <Gold.Chemscore.Hbonds>
donor molecule, donor type, donor heavy atom, donor atom, acceptor molecule, acceptor atom, score
      L1  H    13    27       P1  7957  0.81
      P1  H  7997  8010       L1     5  0.78
      P1  H  8011  8017       L1    13  1.00
      L1  C    15    28       P1  8028  1.00

> <Gold.PLP.Chemscore.Internal.Correction>
0.0098

> <Gold.Rescore>
     Score         DG    S(hbond)    S(metal)    S(lipo)     H(rot)  DE(clash)    DE(int)     intcor
      7.39      -9.17       1.96        0.00      39.27       2.91       0.00       1.78       ----

> <Gold.Chemscore.Fitness>
7.3870

> <Gold.Chemscore.DG>
-9.1668

> <Gold.Chemscore.ZeroCoef>
-5.4800

> <Gold.Chemscore.Hbond>
1.9617

> <Gold.Chemscore.Metal>
0.0000

> <Gold.Chemscore.Lipo>
39.2731

> <Gold.Chemscore.Internal_Hbond>
0.0000

> <Gold.Chemscore.DEClash>
0.0015

> <Gold.Chemscore.DEInternal>
1.7784

> <Gold.Chemscore.Rot>
2.9141

> <Gold.Chemscore.Internal.Correction>
   9.000000E+99

> <Gold.Chemscore.Hbonds>
donor molecule, donor type, donor heavy atom, donor atom, acceptor molecule, acceptor atom, score
      L1  H    13    27       P1  7957  0.77
      P1  H  7997  8010       L1     5  0.23
      P1  H  8011  8017       L1    13  0.32

> <Gold.Chemscore.Hbond.Weighted>
-6.5519

> <Gold.Chemscore.Metal.Weighted>
-0.0000

> <Gold.Chemscore.Lipo.Weighted>
-4.5950

> <Gold.Chemscore.Internal_Hbond.Weighted>
0.0000

> <Gold.Chemscore.DEClash.Weighted>
0.0015

> <Gold.Chemscore.DEInternal.Weighted>
1.7784

> <Gold.Chemscore.Rot.Weighted>
7.4601

> <Gold.Chemscore.Internal.Correction.Weighted>
   9.000000E+99

> <Gold.Protein.RotatedTorsions>
[ 6907 6896 6895 6894 ] final  105.59 input  -60.11 | X-H torsion
[ 7974 7965 7964 7962 ] final  155.03 input  175.53 | X-H torsion
[ 8008 7997 7996 7995 ] final   27.21 input   59.86 | X-H torsion
[ 10167 10162 10161 10158 ] final -175.63 input  -65.29 | X-H torsion
[ 10718 10713 10712 10709 ] final  156.23 input   66.30 | X-H torsion
[ 10763 10752 10751 10750 ] final  141.65 input  -60.55 | X-H torsion
[ 11005 11000 10999 10996 ] final   75.63 input  -57.11 | X-H torsion

> <Gold.Protein.ActiveResidues>
 VAL166  LYS551  ARG553  GLY616  TRP617  ASP618  TYR619  PRO620  LYS621  CYS622 
 ASP623  PHE694  ASN695  SER759  ASP760  ASP761  ALA762  ILE779  LEU786  VAL792 
 PHE793  MET794  SER795  GLU796  ALA797  LYS798  CYS799  TRP800  GLU811  SER814 

> <Gold.Protein.RotatedAtoms>
  152.5225  133.9506  159.7669 H   0  0  0  0  0  0  0  0  0  0  0  0  # atno 6907 bound_to 6896
  150.9817  133.6230  159.2728 H   0  0  0  0  0  0  0  0  0  0  0  0  # atno 6908 bound_to 6896
  151.3405  135.0868  159.9422 H   0  0  0  0  0  0  0  0  0  0  0  0  # atno 6909 bound_to 6896
  144.8050  139.7014  143.6166 H   0  0  0  0  0  0  0  0  0  0  0  0  # atno 7974 bound_to 7965
  155.0394  140.3167  155.4730 H   0  0  0  0  0  0  0  0  0  0  0  0  # atno 8008 bound_to 7997
  156.2858  140.2166  156.5460 H   0  0  0  0  0  0  0  0  0  0  0  0  # atno 8009 bound_to 7997
  154.7303  140.0482  157.0708 H   0  0  0  0  0  0  0  0  0  0  0  0  # atno 8010 bound_to 7997
  139.5571  144.1962  152.1177 H   0  0  0  0  0  0  0  0  0  0  0  0  # atno 10167 bound_to 10162
  157.2077  131.0690  151.1988 H   0  0  0  0  0  0  0  0  0  0  0  0  # atno 10718 bound_to 10713
  153.9428  135.2978  155.3442 H   0  0  0  0  0  0  0  0  0  0  0  0  # atno 10763 bound_to 10752
  154.7468  135.4999  153.9221 H   0  0  0  0  0  0  0  0  0  0  0  0  # atno 10764 bound_to 10752
  153.1033  135.6740  153.9739 H   0  0  0  0  0  0  0  0  0  0  0  0  # atno 10765 bound_to 10752
  139.9335  134.7533  156.1294 H   0  0  0  0  0  0  0  0  0  0  0  0  # atno 11005 bound_to 11000
  146.2340  139.5869  142.9536 LP  0  0  0  0  0  0  0  0  0  0  0  0  # atno 17320 bound_to 7965
  145.5459  141.0417  143.2305 LP  0  0  0  0  0  0  0  0  0  0  0  0  # atno 17321 bound_to 7965
  140.1469  144.5151  150.6711 LP  0  0  0  0  0  0  0  0  0  0  0  0  # atno 17342 bound_to 10162
  140.6845  143.2343  151.5296 LP  0  0  0  0  0  0  0  0  0  0  0  0  # atno 17343 bound_to 10162
  157.3703  130.7178  149.6560 LP  0  0  0  0  0  0  0  0  0  0  0  0  # atno 17370 bound_to 10713
  155.9694  130.4200  150.4404 LP  0  0  0  0  0  0  0  0  0  0  0  0  # atno 17371 bound_to 10713
  141.0937  133.6704  156.2596 LP  0  0  0  0  0  0  0  0  0  0  0  0  # atno 17394 bound_to 11000
  140.6138  134.5431  157.5537 LP  0  0  0  0  0  0  0  0  0  0  0  0  # atno 17395 bound_to 11000

$$$$
