#       Name:                AV-unprocessed.smi:221
#       Creating user name   scv26
#       Creation time:       Thu Mar 26 20:12:42 2020


#       File generated by GOLD software.
#

@<TRIPOS>MOLECULE
AV-unprocessed.smi:221
    60    63     1
SMALL
NO_CHARGES


@<TRIPOS>ATOM
      1 ****         0.6668   4.0762  -1.0157 N.am           1 S1                 0.0000
      2 ****        -0.3661   4.5810  -1.6977 C.2            1 S1                 0.0000
      3 ****        -0.2140   5.1216  -2.7912 O.2            1 S1                 0.0000
      4 ****        -1.7690   4.4788  -1.0635 C.3            1 S1                 0.0000
      5 ****        -2.9498   4.5990  -2.0383 C.3            1 S1                 0.0000
      6 ****        -4.1312   4.0296  -1.2439 C.3            1 S1                 0.0000
      7 ****        -4.8126   3.1555  -1.9854 F              1 S1                 0.0000
      8 ****        -3.5066   3.3478  -0.0144 C.3            1 S1                 0.0000
      9 ****        -2.0668   3.2931  -0.2487 N.3            1 S1                 0.0000
     10 ****        -1.6731   2.0570  -0.6528 C.ar           1 S1                 0.0000
     11 ****        -1.7866   1.6696  -1.9512 N.ar           1 S1                 0.0000
     12 ****        -1.4124   0.4409  -2.3199 C.ar           1 S1                 0.0000
     13 ****        -0.9127  -0.5407  -1.5655 N.ar           1 S1                 0.0000
     14 ****        -0.8025  -0.1558  -0.2618 C.ar           1 S1                 0.0000
     15 ****        -1.1586   1.1132   0.2737 C.ar           1 S1                 0.0000
     16 ****        -0.9074   1.1444   1.6394 N.2            1 S1                 0.0000
     17 ****        -0.4264  -0.0411   1.8980 C.2            1 S1                 0.0000
     18 ****        -0.3252  -0.8837   0.8141 N.pl3          1 S1                 0.0000
     19 ****         0.1751  -2.2469   0.8255 C.3            1 S1                 0.0000
     20 ****         1.7201  -2.3236   0.8994 C.3            1 S1                 0.0000
     21 ****         2.4085  -1.5474  -0.2498 C.3            1 S1                 0.0000
     22 ****         2.1064  -2.1124  -1.5091 O.3            1 S1                 0.0000
     23 ****         2.2177  -3.7878   1.0007 C.3            1 S1                 0.0000
     24 ****         1.7098  -4.5508   2.2119 C.3            1 S1                 0.0000
     25 ****         2.6932  -5.7126   2.2977 C.3            1 S1                 0.0000
     26 ****         3.9318  -5.2049   1.8153 O.3            1 S1                 0.0000
     27 ****         3.7304  -3.9388   1.1951 C.3            1 S1                 0.0000
     28 ****        -1.8255   5.3243  -0.3755 H              1 S1                 0.0000
     29 ****        -4.8314   4.8095  -0.9435 H              1 S1                 0.0000
     30 ****         1.5971   4.1281  -1.4045 H              1 S1                 0.0000
     31 ****         0.5133   3.6455  -0.1155 H              1 S1                 0.0000
     32 ****        -3.1231   5.6296  -2.3492 H              1 S1                 0.0000
     33 ****        -2.7758   4.0101  -2.9402 H              1 S1                 0.0000
     34 ****        -3.6792   3.9504   0.8782 H              1 S1                 0.0000
     35 ****        -3.9533   2.3696   0.1769 H              1 S1                 0.0000
     36 ****        -1.5330   0.2109  -3.3681 H              1 S1                 0.0000
     37 ****        -0.1264  -0.3360   2.8933 H              1 S1                 0.0000
     38 ****        -0.2766  -2.7502   1.6802 H              1 S1                 0.0000
     39 ****        -0.1915  -2.7636  -0.0622 H              1 S1                 0.0000
     40 ****         2.0145  -1.8237   1.8236 H              1 S1                 0.0000
     41 ****         2.1039  -0.5010  -0.2541 H              1 S1                 0.0000
     42 ****         3.4907  -1.5426  -0.1220 H              1 S1                 0.0000
     43 ****         2.5142  -1.5876  -2.1809 H              1 S1                 0.0000
     44 ****         1.9259  -4.3374   0.1041 H              1 S1                 0.0000
     45 ****         1.7805  -3.9344   3.1094 H              1 S1                 0.0000
     46 ****         0.6783  -4.8887   2.1092 H              1 S1                 0.0000
     47 ****         2.7884  -6.1039   3.3107 H              1 S1                 0.0000
     48 ****         2.3758  -6.5283   1.6469 H              1 S1                 0.0000
     49 ****         4.2803  -3.8720   0.2560 H              1 S1                 0.0000
     50 ****         4.1135  -3.1681   1.8654 H              1 S1                 0.0000
     51 ****         0.6997   5.1919  -3.1914 LP             1 S1                 0.0000
     52 ****        -1.0040   5.4910  -3.2805 LP             1 S1                 0.0000
     53 ****        -1.4873   3.3696   0.5627 LP             1 S1                 0.0000
     54 ****        -2.1508   2.3055  -2.6316 LP             1 S1                 0.0000
     55 ****        -0.6527  -1.4421  -1.9118 LP             1 S1                 0.0000
     56 ****        -1.0597   1.8998   2.2767 LP             1 S1                 0.0000
     57 ****         1.1157  -2.1228  -1.6447 LP             1 S1                 0.0000
     58 ****         2.4585  -3.0474  -1.5520 LP             1 S1                 0.0000
     59 ****         4.3141  -5.8437   1.1476 LP             1 S1                 0.0000
     60 ****         4.5679  -5.1017   2.5800 LP             1 S1                 0.0000
@<TRIPOS>BOND
    1    1    2 am    
    2    1   30 1     
    3    1   31 1     
    4    2    3 2     
    5    2    4 1     
    6    4   28 1     
    7    4    9 1     
    8    4    5 1     
    9    5    6 1     
   10    5   32 1     
   11    5   33 1     
   12    6   29 1     
   13    6    7 1     
   14    6    8 1     
   15    8    9 1     
   16    8   34 1     
   17    8   35 1     
   18    9   10 1     
   19   10   15 ar    
   20   10   11 ar    
   21   11   12 ar    
   22   12   13 ar    
   23   12   36 1     
   24   13   14 ar    
   25   14   18 1     
   26   14   15 ar    
   27   15   16 1     
   28   16   17 2     
   29   17   18 1     
   30   17   37 1     
   31   18   19 1     
   32   19   20 1     
   33   19   38 1     
   34   19   39 1     
   35   20   21 1     
   36   20   23 1     
   37   20   40 1     
   38   21   22 1     
   39   21   41 1     
   40   21   42 1     
   41   22   43 1     
   42   23   27 1     
   43   23   24 1     
   44   23   44 1     
   45   24   25 1     
   46   24   45 1     
   47   24   46 1     
   48   25   26 1     
   49   25   47 1     
   50   25   48 1     
   51   26   27 1     
   52   27   49 1     
   53   27   50 1     
   54    3   51 1     
   55    3   52 1     
   56    9   53 1     
   57   11   54 1     
   58   13   55 1     
   59   16   56 1     
   60   22   57 1     
   61   22   58 1     
   62   26   59 1     
   63   26   60 1     
@<TRIPOS>SUBSTRUCTURE
      1 S1             1
@<TRIPOS>SET
LONE_PAIRS      STATIC     ATOMS    <user>   **** ""
10 51 52 53 54 55 56 57 58 59 60
DONOR_HYDROGENS      STATIC     ATOMS    <user>   **** ""
3 30 31 43
ATOM$BLUE        STATIC     ATOMS    COLORGROUP SYSTEM
10 51 52 53 54 55 56 57 58 59 60
ATOM$RED        STATIC     ATOMS    COLORGROUP SYSTEM
3 30 31 43
