AV-unprocessed.smi:1679|AV-procd|sdf|6729|dock7
  -GOLD-   22720 7473D 1   1.00000     0.00000
 Structure written by MMmdl.
 45 46  0  0  0  0  0  0  0  0  1 V2000
  150.6997  144.9154  158.7446 C   0  0  0  0  0  0  0  0  0  0  0  0
  151.2928  143.6888  159.4571 C   0  0  2  0  0  0  0  0  0  0  0  0
  152.4651  144.1052  160.3683 C   0  0  0  0  0  0  0  0  0  0  0  0
  153.0850  142.8983  161.0881 C   0  0  0  0  0  0  0  0  0  0  0  0
  153.5400  141.8326  160.0820 C   0  0  0  0  0  0  0  0  0  0  0  0
  152.3770  141.3988  159.1778 C   0  0  0  0  0  0  0  0  0  0  0  0
  151.7395  142.6030  158.4516 C   0  0  1  0  0  0  0  0  0  0  0  0
  150.5885  142.1622  157.7423 O   0  0  0  0  0  0  0  0  0  0  0  0
  150.7777  142.0298  156.3408 C   0  0  0  0  0  0  0  0  0  0  0  0
  149.7763  141.0040  155.8001 C   0  0  0  0  0  0  0  0  0  0  0  0
  148.6308  141.6754  155.2021 N   0  0  0  0  0  0  0  0  0  0  0  0
  147.7874  141.1089  154.3283 C   0  0  0  0  0  0  0  0  0  0  0  0
  147.9032  139.9450  153.9414 O   0  0  0  0  0  0  0  0  0  0  0  0
  146.6562  142.0097  153.8109 C   0  0  0  0  0  0  0  0  0  0  0  0
  145.6689  142.3602  154.8426 N   0  0  0  0  0  0  0  0  0  0  0  0
  145.7628  141.8098  156.1130 C   0  0  0  0  0  0  0  0  0  0  0  0
  144.8956  142.0918  157.1139 C   0  0  0  0  0  0  0  0  0  0  0  0
  143.7896  143.0172  156.8940 C   0  0  0  0  0  0  0  0  0  0  0  0
  142.9521  143.3343  157.7357 O   0  0  0  0  0  0  0  0  0  0  0  0
  143.7311  143.5531  155.6047 N   0  0  0  0  0  0  0  0  0  0  0  0
  144.6224  143.2680  154.5690 C   0  0  0  0  0  0  0  0  0  0  0  0
  144.4822  143.8004  153.4686 O   0  0  0  0  0  0  0  0  0  0  0  0
  142.9834  144.2021  155.4064 H   0  0  0  0  0  0  0  0  0  0  0  0
  151.4282  145.3779  158.0780 H   0  0  0  0  0  0  0  0  0  0  0  0
  150.3813  145.6706  159.4636 H   0  0  0  0  0  0  0  0  0  0  0  0
  149.8277  144.6460  158.1482 H   0  0  0  0  0  0  0  0  0  0  0  0
  150.5126  143.2640  160.0904 H   0  0  0  0  0  0  0  0  0  0  0  0
  153.2324  144.6069  159.7770 H   0  0  0  0  0  0  0  0  0  0  0  0
  152.1230  144.8310  161.1068 H   0  0  0  0  0  0  0  0  0  0  0  0
  153.9305  143.2212  161.6962 H   0  0  0  0  0  0  0  0  0  0  0  0
  152.3557  142.4666  161.7749 H   0  0  0  0  0  0  0  0  0  0  0  0
  154.3532  142.2268  159.4712 H   0  0  0  0  0  0  0  0  0  0  0  0
  153.9412  140.9685  160.6121 H   0  0  0  0  0  0  0  0  0  0  0  0
  152.7372  140.6633  158.4588 H   0  0  0  0  0  0  0  0  0  0  0  0
  151.6203  140.8939  159.7801 H   0  0  0  0  0  0  0  0  0  0  0  0
  152.4639  143.0446  157.7642 H   0  0  0  0  0  0  0  0  0  0  0  0
  150.6107  142.9949  155.8609 H   0  0  0  0  0  0  0  0  0  0  0  0
  151.7955  141.7195  156.1032 H   0  0  0  0  0  0  0  0  0  0  0  0
  150.2571  140.3599  155.0623 H   0  0  0  0  0  0  0  0  0  0  0  0
  149.4314  140.3635  156.6133 H   0  0  0  0  0  0  0  0  0  0  0  0
  148.4762  142.6386  155.4627 H   0  0  0  0  0  0  0  0  0  0  0  0
  147.0866  142.9126  153.3729 H   0  0  0  0  0  0  0  0  0  0  0  0
  146.1639  141.4973  152.9829 H   0  0  0  0  0  0  0  0  0  0  0  0
  146.5694  141.1217  156.3224 H   0  0  0  0  0  0  0  0  0  0  0  0
  145.0218  141.6303  158.0825 H   0  0  0  0  0  0  0  0  0  0  0  0
  1  2  1  0  0  0  0
  1 24  1  0  0  0  0
  1 25  1  0  0  0  0
  1 26  1  0  0  0  0
  2  7  1  0  0  0  0
  2  3  1  0  0  0  0
  2 27  1  0  0  0  0
  3  4  1  0  0  0  0
  3 28  1  0  0  0  0
  3 29  1  0  0  0  0
  4  5  1  0  0  0  0
  4 30  1  0  0  0  0
  4 31  1  0  0  0  0
  5  6  1  0  0  0  0
  5 32  1  0  0  0  0
  5 33  1  0  0  0  0
  6  7  1  0  0  0  0
  6 34  1  0  0  0  0
  6 35  1  0  0  0  0
  7  8  1  0  0  0  0
  7 36  1  0  0  0  0
  8  9  1  0  0  0  0
  9 10  1  0  0  0  0
  9 37  1  0  0  0  0
  9 38  1  0  0  0  0
 10 11  1  0  0  0  0
 10 39  1  0  0  0  0
 10 40  1  0  0  0  0
 11 12  1  0  0  0  0
 11 41  1  0  0  0  0
 12 13  2  0  0  0  0
 12 14  1  0  0  0  0
 14 15  1  0  0  0  0
 14 42  1  0  0  0  0
 14 43  1  0  0  0  0
 15 21  1  0  0  0  0
 15 16  1  0  0  0  0
 16 17  2  0  0  0  0
 16 44  1  0  0  0  0
 17 18  1  0  0  0  0
 17 45  1  0  0  0  0
 18 19  2  0  0  0  0
 18 20  1  0  0  0  0
 20 23  1  0  0  0  0
 20 21  1  0  0  0  0
 21 22  2  0  0  0  0
M  END
> <s_m_source_file>
AV-unprocessed.smi

> <i_m_source_file_index>
1679

> <i_lp_mmshare_version>
43012

> <i_f3d_flags>
0

> <s_epik_input>
W0NIM11bQ0BASF0xW0NIMl1bQ0gyXVtDSDJdW0NIMl1bQ0BIXTFPW0NIMl1bQ0gyXVtOSF1DKD1PKVtDSDJdbjJbY0hdW2NIXWMoPU8pW25IXWMyPU8=

> <s_epik_cmdline>
J2VwaWtfcHl0aG9uJywgJy1waCcsICc3LjAnLCAnLXRuJywgJzgnLCAnLW1hJywgJzIwMCcsICctbWV0YWxfYmluZGluZycsICctaW1hZScsICc8aW5maWxlLm1hZT4nLCAnLW9tYWUnLCAnPG91dGZpbGUubWFlPic=

> <r_lp_tautomer_probability>
0.999537

> <r_epik_Ionization_Penalty>
0.0033132

> <r_epik_Ionization_Penalty_Charging>
0.00331317

> <r_epik_Ionization_Penalty_Neutral>
2.78599e-08

> <r_epik_State_Penalty>
0.002342

> <r_epik_Charging_Adjusted_Penalty>
0.00565517

> <i_epik_Tot_Q>
0

> <i_epik_Tot_abs_Q>
0

> <r_epik_Metal_State_Penalty>
0.365595

> <b_epik_Metal_Only>
0

> <s_lp_Force_Field>
OPLS_2005

> <r_lp_Energy>
12.8009

> <b_lp_Chiralities_Consistent>
1

> <s_lp_Variant>
AV-unprocessed.smi:1679-1

> <Gold.Version>
5.8.1

> <Gold.Id.Protein>
6NUR|6NUR_protein|mol2

> <Gold.PLP.Fitness>
44.7343

> <Gold.PLP.PLP>
-44.1915

> <Gold.PLP.part.hbond>
-1.2695

> <Gold.PLP.part.metal>
0.0000

> <Gold.PLP.part.buried>
-10.0410

> <Gold.PLP.part.nonpolar>
-33.8470

> <Gold.PLP.part.repulsive>
0.6969

> <Gold.PLP.ligand.clash>
0.0000

> <Gold.PLP.ligand.torsion>
1.2630

> <Gold.PLP.Chemscore.Hbond>
1.0000

> <Gold.PLP.Chemscore.CHOScore>
0.0000

> <Gold.PLP.Chemscore.Metal>
0.0000

> <Gold.Chemscore.Hbonds>
donor molecule, donor type, donor heavy atom, donor atom, acceptor molecule, acceptor atom, score
      L1  H    11    41       P1  8028  0.78

> <Gold.PLP.Chemscore.Internal.Correction>
0.0688

> <Gold.Rescore>
     Score         DG    S(hbond)    S(metal)    S(lipo)     H(rot)  DE(clash)    DE(int)     intcor
     12.64     -14.06       1.00        0.00     100.00       2.52       0.21       1.22       ----

> <Gold.Chemscore.Fitness>
12.6369

> <Gold.Chemscore.DG>
-14.0617

> <Gold.Chemscore.ZeroCoef>
-5.4800

> <Gold.Chemscore.Hbond>
0.9966

> <Gold.Chemscore.Metal>
0.0000

> <Gold.Chemscore.Lipo>
100.0035

> <Gold.Chemscore.Internal_Hbond>
0.0000

> <Gold.Chemscore.DEClash>
0.2097

> <Gold.Chemscore.DEInternal>
1.2151

> <Gold.Chemscore.Rot>
2.5185

> <Gold.Chemscore.Internal.Correction>
   9.000000E+99

> <Gold.Chemscore.Hbonds>
donor molecule, donor type, donor heavy atom, donor atom, acceptor molecule, acceptor atom, score
      L1  H    11    41       P1  8028  0.76

> <Gold.Chemscore.Hbond.Weighted>
-3.3286

> <Gold.Chemscore.Metal.Weighted>
-0.0000

> <Gold.Chemscore.Lipo.Weighted>
-11.7004

> <Gold.Chemscore.Internal_Hbond.Weighted>
0.0000

> <Gold.Chemscore.DEClash.Weighted>
0.2097

> <Gold.Chemscore.DEInternal.Weighted>
1.2151

> <Gold.Chemscore.Rot.Weighted>
6.4472

> <Gold.Chemscore.Internal.Correction.Weighted>
   9.000000E+99

> <Gold.Protein.RotatedTorsions>
[ 6907 6896 6895 6894 ] final  158.31 input  -60.11 | X-H torsion
[ 7974 7965 7964 7962 ] final   85.94 input  175.53 | X-H torsion
[ 8008 7997 7996 7995 ] final   74.37 input   59.86 | X-H torsion
[ 10167 10162 10161 10158 ] final    4.69 input  -65.29 | X-H torsion
[ 10718 10713 10712 10709 ] final  143.46 input   66.30 | X-H torsion
[ 10763 10752 10751 10750 ] final  126.06 input  -60.55 | X-H torsion
[ 11005 11000 10999 10996 ] final  -53.59 input  -57.11 | X-H torsion

> <Gold.Protein.ActiveResidues>
 VAL166  LYS551  ARG553  GLY616  TRP617  ASP618  TYR619  PRO620  LYS621  CYS622 
 ASP623  PHE694  ASN695  SER759  ASP760  ASP761  ALA762  ILE779  LEU786  VAL792 
 PHE793  MET794  SER795  GLU796  ALA797  LYS798  CYS799  TRP800  GLU811  SER814 

> <Gold.Protein.RotatedAtoms>
  152.0023  133.3830  159.4186 H   0  0  0  0  0  0  0  0  0  0  0  0  # atno 6907 bound_to 6896
  150.6908  134.3820  159.5047 H   0  0  0  0  0  0  0  0  0  0  0  0  # atno 6908 bound_to 6896
  152.1569  134.8943  160.0595 H   0  0  0  0  0  0  0  0  0  0  0  0  # atno 6909 bound_to 6896
  145.5788  139.2322  143.2364 H   0  0  0  0  0  0  0  0  0  0  0  0  # atno 7974 bound_to 7965
  155.7973  140.3477  155.5383 H   0  0  0  0  0  0  0  0  0  0  0  0  # atno 8008 bound_to 7997
  155.8573  140.0965  157.1656 H   0  0  0  0  0  0  0  0  0  0  0  0  # atno 8009 bound_to 7997
  154.4010  140.1365  156.3905 H   0  0  0  0  0  0  0  0  0  0  0  0  # atno 8010 bound_to 7997
  140.6522  143.7518  150.7593 H   0  0  0  0  0  0  0  0  0  0  0  0  # atno 10167 bound_to 10162
  157.3687  131.0976  151.0848 H   0  0  0  0  0  0  0  0  0  0  0  0  # atno 10718 bound_to 10713
  153.6873  135.3304  155.3193 H   0  0  0  0  0  0  0  0  0  0  0  0  # atno 10763 bound_to 10752
  154.8449  135.4423  154.1544 H   0  0  0  0  0  0  0  0  0  0  0  0  # atno 10764 bound_to 10752
  153.2577  135.6988  153.7689 H   0  0  0  0  0  0  0  0  0  0  0  0  # atno 10765 bound_to 10752
  141.0983  133.6621  156.4194 H   0  0  0  0  0  0  0  0  0  0  0  0  # atno 11005 bound_to 11000
  146.1731  140.6615  142.9224 LP  0  0  0  0  0  0  0  0  0  0  0  0  # atno 17320 bound_to 7965
  144.7403  140.4924  143.6874 LP  0  0  0  0  0  0  0  0  0  0  0  0  # atno 17321 bound_to 7965
  140.1170  143.4646  152.2336 LP  0  0  0  0  0  0  0  0  0  0  0  0  # atno 17342 bound_to 10162
  139.5738  144.7477  151.3819 LP  0  0  0  0  0  0  0  0  0  0  0  0  # atno 17343 bound_to 10162
  157.1961  130.6373  149.5721 LP  0  0  0  0  0  0  0  0  0  0  0  0  # atno 17370 bound_to 10713
  155.9751  130.4706  150.6436 LP  0  0  0  0  0  0  0  0  0  0  0  0  # atno 17371 bound_to 10713
  140.5085  134.6418  157.5275 LP  0  0  0  0  0  0  0  0  0  0  0  0  # atno 17394 bound_to 11000
  139.9827  134.7112  155.9831 LP  0  0  0  0  0  0  0  0  0  0  0  0  # atno 17395 bound_to 11000

$$$$
