AV-unprocessed.smi:102|AV-procd|sdf|954|dock7
  -GOLD-   2262017483D 1   1.00000     0.00000
 Structure written by MMmdl.
 44 45  0  0  0  0  0  0  0  0  1 V2000
  147.4296  135.8345  162.2617 C   0  0  0  0  0  0  0  0  0  0  0  0
  147.5789  136.7200  161.0318 C   0  0  0  0  0  0  0  0  0  0  0  0
  146.6548  137.4296  160.6342 O   0  0  0  0  0  0  0  0  0  0  0  0
  148.7947  136.6192  160.4722 O   0  0  0  0  0  0  0  0  0  0  0  0
  149.1237  137.4314  159.3574 C   0  0  0  0  0  0  0  0  0  0  0  0
  150.6496  137.5822  159.2629 C   0  0  1  0  0  0  0  0  0  0  0  0
  151.2044  136.4489  158.5982 O   0  0  0  0  0  0  0  0  0  0  0  0
  151.4596  136.7143  157.2491 C   0  0  1  0  0  0  0  0  0  0  0  0
  150.6596  135.7682  156.3732 N   0  0  0  0  0  0  0  0  0  0  0  0
  149.8407  134.7735  156.8951 C   0  0  0  0  0  0  0  0  0  0  0  0
  149.1177  133.9321  156.1187 C   0  0  0  0  0  0  0  0  0  0  0  0
  148.3468  132.9950  156.6962 F   0  0  0  0  0  0  0  0  0  0  0  0
  149.1724  134.0282  154.6629 C   0  0  0  0  0  0  0  0  0  0  0  0
  148.5508  133.3156  153.8775 O   0  0  0  0  0  0  0  0  0  0  0  0
  150.0208  135.0298  154.1823 N   0  0  0  0  0  0  0  0  0  0  0  0
  150.7721  135.9021  154.9715 C   0  0  0  0  0  0  0  0  0  0  0  0
  151.4891  136.7511  154.4433 O   0  0  0  0  0  0  0  0  0  0  0  0
  151.1340  138.2019  156.9927 C   0  0  1  0  0  0  0  0  0  0  0  0
  149.8895  138.3709  156.3175 O   0  0  0  0  0  0  0  0  0  0  0  0
  149.8482  138.9175  155.0925 C   0  0  0  0  0  0  0  0  0  0  0  0
  148.4721  138.7946  154.4527 C   0  0  0  0  0  0  0  0  0  0  0  0
  150.7827  139.4695  154.5124 O   0  0  0  0  0  0  0  0  0  0  0  0
  151.0497  138.7793  158.3956 C   0  0  2  0  0  0  0  0  0  0  0  0
  152.3209  139.2994  158.7666 O   0  0  0  0  0  0  0  0  0  0  0  0
  152.5408  140.6263  158.7633 C   0  0  0  0  0  0  0  0  0  0  0  0
  153.6160  141.0387  159.7598 C   0  0  0  0  0  0  0  0  0  0  0  0
  151.9623  141.4556  158.0609 O   0  0  0  0  0  0  0  0  0  0  0  0
  150.0955  135.1300  153.1803 H   0  0  0  0  0  0  0  0  0  0  0  0
  147.7519  134.8169  162.0395 H   0  0  0  0  0  0  0  0  0  0  0  0
  146.3894  135.8039  162.5869 H   0  0  0  0  0  0  0  0  0  0  0  0
  148.0369  136.2203  163.0806 H   0  0  0  0  0  0  0  0  0  0  0  0
  148.7248  137.0123  158.4331 H   0  0  0  0  0  0  0  0  0  0  0  0
  148.6595  138.4088  159.4942 H   0  0  0  0  0  0  0  0  0  0  0  0
  151.0625  137.6678  160.2689 H   0  0  0  0  0  0  0  0  0  0  0  0
  152.5064  136.4706  157.0571 H   0  0  0  0  0  0  0  0  0  0  0  0
  149.7614  134.6391  157.9620 H   0  0  0  0  0  0  0  0  0  0  0  0
  151.9447  138.6440  156.4111 H   0  0  0  0  0  0  0  0  0  0  0  0
  148.1249  137.7620  154.4947 H   0  0  0  0  0  0  0  0  0  0  0  0
  148.5051  139.1058  153.4084 H   0  0  0  0  0  0  0  0  0  0  0  0
  147.7538  139.4234  154.9789 H   0  0  0  0  0  0  0  0  0  0  0  0
  150.3071  139.5777  158.4420 H   0  0  0  0  0  0  0  0  0  0  0  0
  154.5201  140.4483  159.6096 H   0  0  0  0  0  0  0  0  0  0  0  0
  153.2647  140.8827  160.7798 H   0  0  0  0  0  0  0  0  0  0  0  0
  153.8677  142.0925  159.6382 H   0  0  0  0  0  0  0  0  0  0  0  0
  1  2  1  0  0  0  0
  1 29  1  0  0  0  0
  1 30  1  0  0  0  0
  1 31  1  0  0  0  0
  2  3  2  0  0  0  0
  2  4  1  0  0  0  0
  4  5  1  0  0  0  0
  5  6  1  0  0  0  0
  5 32  1  0  0  0  0
  5 33  1  0  0  0  0
  6 23  1  0  0  0  0
  6  7  1  0  0  0  0
  6 34  1  0  0  0  0
  7  8  1  0  0  0  0
  8  9  1  0  0  0  0
  8 18  1  0  0  0  0
  8 35  1  0  0  0  0
  9 16  1  0  0  0  0
  9 10  1  0  0  0  0
 10 11  2  0  0  0  0
 10 36  1  0  0  0  0
 11 12  1  0  0  0  0
 11 13  1  0  0  0  0
 13 14  2  0  0  0  0
 13 15  1  0  0  0  0
 15 28  1  0  0  0  0
 15 16  1  0  0  0  0
 16 17  2  0  0  0  0
 18 19  1  0  0  0  0
 18 23  1  0  0  0  0
 18 37  1  0  0  0  0
 19 20  1  0  0  0  0
 20 21  1  0  0  0  0
 20 22  2  0  0  0  0
 21 38  1  0  0  0  0
 21 39  1  0  0  0  0
 21 40  1  0  0  0  0
 23 24  1  0  0  0  0
 23 41  1  0  0  0  0
 24 25  1  0  0  0  0
 25 26  1  0  0  0  0
 25 27  2  0  0  0  0
 26 42  1  0  0  0  0
 26 43  1  0  0  0  0
 26 44  1  0  0  0  0
M  END
> <s_m_source_file>
AV-unprocessed.smi

> <i_m_source_file_index>
102

> <i_lp_mmshare_version>
43012

> <i_f3d_flags>
0

> <s_epik_input>
W0NIM11DKD1PKU9bQ0gyXVtDQEBIXTFPW0NASF0oW0NAQEhdKE9DKD1PKVtDSDNdKVtDQEhdMU9DKD1PKVtDSDNdKW4yW2NIXWMoRiljKD1PKVtuSF1jMj1P

> <s_epik_cmdline>
J2VwaWtfcHl0aG9uJywgJy1waCcsICc3LjAnLCAnLXRuJywgJzgnLCAnLW1hJywgJzIwMCcsICctbWV0YWxfYmluZGluZycsICctaW1hZScsICc8aW5maWxlLm1hZT4nLCAnLW9tYWUnLCAnPG91dGZpbGUubWFlPic=

> <r_lp_tautomer_probability>
0.999537

> <r_epik_Ionization_Penalty>
0.058267

> <r_epik_Ionization_Penalty_Charging>
0.058267

> <r_epik_Ionization_Penalty_Neutral>
6.57791e-16

> <r_epik_State_Penalty>
0.0503774

> <r_epik_Charging_Adjusted_Penalty>
0.108644

> <i_epik_Tot_Q>
0

> <i_epik_Tot_abs_Q>
0

> <r_epik_Metal_State_Penalty>
2.6644

> <b_epik_Metal_Only>
0

> <s_epik_Chemistry_Notes>
This compound has an ester and may undergo hydrolysis at high or low pH. This compound contains an acetal/aminal-like group ( X-CH(R)-Y where X, Y are N, S, or O) that may be acid/base labile, releasing an aldehyde.

> <s_lp_Force_Field>
OPLS_2005

> <r_lp_Energy>
14.5716

> <b_lp_Chiralities_Consistent>
1

> <s_lp_Variant>
AV-unprocessed.smi:102-10

> <Gold.Version>
5.8.1

> <Gold.Id.Protein>
6NUR|6NUR_protein|mol2

> <Gold.PLP.Fitness>
38.8962

> <Gold.PLP.PLP>
-32.0714

> <Gold.PLP.part.hbond>
-6.5867

> <Gold.PLP.part.metal>
0.0000

> <Gold.PLP.part.buried>
-4.3535

> <Gold.PLP.part.nonpolar>
-22.8282

> <Gold.PLP.part.repulsive>
1.1853

> <Gold.PLP.ligand.clash>
0.0000

> <Gold.PLP.ligand.torsion>
2.1062

> <Gold.PLP.Chemscore.Hbond>
3.6472

> <Gold.PLP.Chemscore.CHOScore>
0.0000

> <Gold.PLP.Chemscore.Metal>
0.0000

> <Gold.Chemscore.Hbonds>
donor molecule, donor type, donor heavy atom, donor atom, acceptor molecule, acceptor atom, score
      P1  H  6896  6907       L1     7  0.75
      P1  H  6934  6947       L1     3  1.00
      P1  H  7989  7998       L1    22  1.00
      P1  H 10752 10764       L1    17  0.94

> <Gold.PLP.Chemscore.Internal.Correction>
0.0956

> <Gold.Rescore>
     Score         DG    S(hbond)    S(metal)    S(lipo)     H(rot)  DE(clash)    DE(int)     intcor
      3.09     -11.09       3.19        0.00      45.67       4.05       0.11       7.89       ----

> <Gold.Chemscore.Fitness>
3.0902

> <Gold.Chemscore.DG>
-11.0919

> <Gold.Chemscore.ZeroCoef>
-5.4800

> <Gold.Chemscore.Hbond>
3.1861

> <Gold.Chemscore.Metal>
0.0000

> <Gold.Chemscore.Lipo>
45.6721

> <Gold.Chemscore.Internal_Hbond>
0.0000

> <Gold.Chemscore.DEClash>
0.1082

> <Gold.Chemscore.DEInternal>
7.8936

> <Gold.Chemscore.Rot>
4.0520

> <Gold.Chemscore.Internal.Correction>
   9.000000E+99

> <Gold.Chemscore.Hbonds>
donor molecule, donor type, donor heavy atom, donor atom, acceptor molecule, acceptor atom, score
      P1  H  6896  6907       L1     7  0.42
      P1  H  6934  6947       L1     3  0.50
      P1  H  7989  7998       L1    22  1.00
      P1  H 10752 10764       L1    17  0.27

> <Gold.Chemscore.Hbond.Weighted>
-10.6415

> <Gold.Chemscore.Metal.Weighted>
-0.0000

> <Gold.Chemscore.Lipo.Weighted>
-5.3436

> <Gold.Chemscore.Internal_Hbond.Weighted>
0.0000

> <Gold.Chemscore.DEClash.Weighted>
0.1082

> <Gold.Chemscore.DEInternal.Weighted>
7.8936

> <Gold.Chemscore.Rot.Weighted>
10.3732

> <Gold.Chemscore.Internal.Correction.Weighted>
   9.000000E+99

> <Gold.Protein.RotatedTorsions>
[ 6907 6896 6895 6894 ] final  -23.91 input  -60.11 | X-H torsion
[ 7974 7965 7964 7962 ] final  -66.92 input  175.53 | X-H torsion
[ 8008 7997 7996 7995 ] final -169.03 input   59.86 | X-H torsion
[ 10167 10162 10161 10158 ] final  -53.23 input  -65.29 | X-H torsion
[ 10718 10713 10712 10709 ] final -163.82 input   66.30 | X-H torsion
[ 10763 10752 10751 10750 ] final  -95.55 input  -60.55 | X-H torsion
[ 11005 11000 10999 10996 ] final -166.15 input  -57.11 | X-H torsion

> <Gold.Protein.ActiveResidues>
 VAL166  LYS551  ARG553  GLY616  TRP617  ASP618  TYR619  PRO620  LYS621  CYS622 
 ASP623  PHE694  ASN695  SER759  ASP760  ASP761  ALA762  ILE779  LEU786  VAL792 
 PHE793  MET794  SER795  GLU796  ALA797  LYS798  CYS799  TRP800  GLU811  SER814 

> <Gold.Protein.RotatedAtoms>
  151.1972  135.0427  159.8856 H   0  0  0  0  0  0  0  0  0  0  0  0  # atno 6907 bound_to 6896
  152.5435  134.0891  159.8279 H   0  0  0  0  0  0  0  0  0  0  0  0  # atno 6908 bound_to 6896
  151.1026  133.5184  159.2641 H   0  0  0  0  0  0  0  0  0  0  0  0  # atno 6909 bound_to 6896
  145.7357  140.8977  143.0556 H   0  0  0  0  0  0  0  0  0  0  0  0  # atno 7974 bound_to 7965
  155.8995  140.1038  157.1360 H   0  0  0  0  0  0  0  0  0  0  0  0  # atno 8008 bound_to 7997
  154.4024  140.1295  156.4482 H   0  0  0  0  0  0  0  0  0  0  0  0  # atno 8009 bound_to 7997
  155.7439  140.3466  155.5120 H   0  0  0  0  0  0  0  0  0  0  0  0  # atno 8010 bound_to 7997
  140.6496  143.2557  151.4762 H   0  0  0  0  0  0  0  0  0  0  0  0  # atno 10167 bound_to 10162
  156.6302  130.8926  151.2976 H   0  0  0  0  0  0  0  0  0  0  0  0  # atno 10718 bound_to 10713
  154.7159  135.5116  153.8736 H   0  0  0  0  0  0  0  0  0  0  0  0  # atno 10763 bound_to 10752
  153.0820  135.6634  154.0035 H   0  0  0  0  0  0  0  0  0  0  0  0  # atno 10764 bound_to 10752
  153.9868  135.3023  155.3395 H   0  0  0  0  0  0  0  0  0  0  0  0  # atno 10765 bound_to 10752
  140.5677  134.5269  157.5156 H   0  0  0  0  0  0  0  0  0  0  0  0  # atno 11005 bound_to 11000
  144.6882  139.9392  143.7474 LP  0  0  0  0  0  0  0  0  0  0  0  0  # atno 17320 bound_to 7965
  146.0496  139.3498  143.0648 LP  0  0  0  0  0  0  0  0  0  0  0  0  # atno 17321 bound_to 7965
  139.5709  144.1930  152.1835 LP  0  0  0  0  0  0  0  0  0  0  0  0  # atno 17342 bound_to 10162
  140.1226  144.5360  150.6853 LP  0  0  0  0  0  0  0  0  0  0  0  0  # atno 17343 bound_to 10162
  157.7202  130.9549  150.1409 LP  0  0  0  0  0  0  0  0  0  0  0  0  # atno 17370 bound_to 10713
  156.2241  130.3676  149.8521 LP  0  0  0  0  0  0  0  0  0  0  0  0  # atno 17371 bound_to 10713
  139.9377  134.7845  156.0760 LP  0  0  0  0  0  0  0  0  0  0  0  0  # atno 17394 bound_to 11000
  141.1075  133.6655  156.2900 LP  0  0  0  0  0  0  0  0  0  0  0  0  # atno 17395 bound_to 11000

$$$$
