AV-unprocessed.smi:1830|AV-procd|sdf|7455|dock3
  -GOLD-   22720 9143D 1   1.00000     0.00000
 Structure written by MMmdl.
 53 56  0  0  0  0  0  0  0  0  2 V2000
  151.9318  135.9503  155.5467 O   0  0  0  0  0  0  0  0  0  0  0  0
  151.0893  136.0773  154.6586 C   0  0  0  0  0  0  0  0  0  0  0  0
  150.8784  137.2193  153.9899 N   0  0  0  0  0  0  0  0  0  0  0  0
  151.6118  138.4670  154.1874 C   0  0  0  0  0  0  0  0  0  0  0  0
  151.2797  139.1305  155.5362 C   0  0  1  0  0  0  0  0  0  0  0  0
  152.4154  139.0304  156.5845 C   0  0  0  0  0  0  0  0  0  0  0  0
  152.0416  139.7561  157.7825 N   0  0  0  0  0  0  0  0  0  0  0  0
  153.0286  139.8324  158.8345 C   0  0  0  0  0  0  0  0  0  0  0  0
  152.5277  140.9693  159.7427 C   0  0  0  0  0  0  0  0  0  0  0  0
  151.5692  141.7847  158.8467 C   0  0  0  0  0  0  0  0  0  0  0  0
  151.7487  141.1305  157.4757 C   0  0  2  0  0  0  0  0  0  0  0  0
  150.5824  141.2299  156.4813 C   0  0  0  0  0  0  0  0  0  0  0  0
  150.9393  140.5033  155.3023 O   0  0  0  0  0  0  0  0  0  0  0  0
  150.2596  135.1083  154.2377 N   0  0  0  0  0  0  0  0  0  0  0  0
  150.1395  133.7808  154.7379 C   0  0  0  0  0  0  0  0  0  0  0  0
  151.0989  133.2447  155.6352 C   0  0  0  0  0  0  0  0  0  0  0  0
  150.9937  131.9072  156.0607 C   0  0  0  0  0  0  0  0  0  0  0  0
  149.9397  131.1183  155.5693 C   0  0  0  0  0  0  0  0  0  0  0  0
  149.0515  131.6524  154.7059 N   0  3  0  0  0  0  0  0  0  0  0  0
  149.0902  132.9368  154.2707 C   0  0  0  0  0  0  0  0  0  0  0  0
  148.0837  133.3599  153.3728 N   0  0  0  0  0  0  0  0  0  0  0  0
  148.1452  132.9859  151.9645 C   0  0  0  0  0  0  0  0  0  0  0  0
  146.7584  133.3006  151.4108 C   0  0  0  0  0  0  0  0  0  0  0  0
  145.8512  132.9726  152.5929 C   0  0  0  0  0  0  0  0  0  0  0  0
  146.6925  133.3554  153.8154 C   0  0  0  0  0  0  0  0  0  0  0  0
  150.1663  137.2284  153.2743 H   0  0  0  0  0  0  0  0  0  0  0  0
  152.6770  138.2385  154.1479 H   0  0  0  0  0  0  0  0  0  0  0  0
  151.4243  139.1673  153.3718 H   0  0  0  0  0  0  0  0  0  0  0  0
  150.3939  138.6366  155.9399 H   0  0  0  0  0  0  0  0  0  0  0  0
  152.6138  137.9861  156.8273 H   0  0  0  0  0  0  0  0  0  0  0  0
  153.3408  139.4439  156.1823 H   0  0  0  0  0  0  0  0  0  0  0  0
  153.1277  138.8841  159.3634 H   0  0  0  0  0  0  0  0  0  0  0  0
  154.0034  140.0923  158.4185 H   0  0  0  0  0  0  0  0  0  0  0  0
  151.9939  140.5726  160.6069 H   0  0  0  0  0  0  0  0  0  0  0  0
  153.3582  141.5730  160.1097 H   0  0  0  0  0  0  0  0  0  0  0  0
  150.5418  141.6738  159.1964 H   0  0  0  0  0  0  0  0  0  0  0  0
  151.8102  142.8480  158.8306 H   0  0  0  0  0  0  0  0  0  0  0  0
  152.6268  141.5813  157.0080 H   0  0  0  0  0  0  0  0  0  0  0  0
  149.6649  140.8207  156.9070 H   0  0  0  0  0  0  0  0  0  0  0  0
  150.3857  142.2696  156.2193 H   0  0  0  0  0  0  0  0  0  0  0  0
  149.5637  135.3837  153.5601 H   0  0  0  0  0  0  0  0  0  0  0  0
  151.9318  133.8338  155.9883 H   0  0  0  0  0  0  0  0  0  0  0  0
  151.7192  131.4905  156.7439 H   0  0  0  0  0  0  0  0  0  0  0  0
  149.7833  130.0824  155.8337 H   0  0  0  0  0  0  0  0  0  0  0  0
  148.9255  133.5377  151.4393 H   0  0  0  0  0  0  0  0  0  0  0  0
  148.3470  131.9188  151.8607 H   0  0  0  0  0  0  0  0  0  0  0  0
  146.6843  134.3616  151.1679 H   0  0  0  0  0  0  0  0  0  0  0  0
  146.5179  132.7284  150.5144 H   0  0  0  0  0  0  0  0  0  0  0  0
  144.8957  133.4962  152.5553 H   0  0  0  0  0  0  0  0  0  0  0  0
  145.6462  131.9012  152.6091 H   0  0  0  0  0  0  0  0  0  0  0  0
  146.5258  132.6652  154.6435 H   0  0  0  0  0  0  0  0  0  0  0  0
  146.4271  134.3586  154.1499 H   0  0  0  0  0  0  0  0  0  0  0  0
  148.2989  131.0536  154.3655 H   0  0  0  0  0  0  0  0  0  0  0  0
  1  2  2  0  0  0  0
  2  3  1  0  0  0  0
  2 14  1  0  0  0  0
  3  4  1  0  0  0  0
  3 26  1  0  0  0  0
  4  5  1  0  0  0  0
  4 27  1  0  0  0  0
  4 28  1  0  0  0  0
  5 13  1  0  0  0  0
  5  6  1  0  0  0  0
  5 29  1  0  0  0  0
  6  7  1  0  0  0  0
  6 30  1  0  0  0  0
  6 31  1  0  0  0  0
  7 11  1  0  0  0  0
  7  8  1  0  0  0  0
  8  9  1  0  0  0  0
  8 32  1  0  0  0  0
  8 33  1  0  0  0  0
  9 10  1  0  0  0  0
  9 34  1  0  0  0  0
  9 35  1  0  0  0  0
 10 11  1  0  0  0  0
 10 36  1  0  0  0  0
 10 37  1  0  0  0  0
 11 12  1  0  0  0  0
 11 38  1  0  0  0  0
 12 13  1  0  0  0  0
 12 39  1  0  0  0  0
 12 40  1  0  0  0  0
 14 15  1  0  0  0  0
 14 41  1  0  0  0  0
 15 20  1  0  0  0  0
 15 16  2  0  0  0  0
 16 17  1  0  0  0  0
 16 42  1  0  0  0  0
 17 18  2  0  0  0  0
 17 43  1  0  0  0  0
 18 19  1  0  0  0  0
 18 44  1  0  0  0  0
 19 20  2  0  0  0  0
 19 53  1  0  0  0  0
 20 21  1  0  0  0  0
 21 25  1  0  0  0  0
 21 22  1  0  0  0  0
 22 23  1  0  0  0  0
 22 45  1  0  0  0  0
 22 46  1  0  0  0  0
 23 24  1  0  0  0  0
 23 47  1  0  0  0  0
 23 48  1  0  0  0  0
 24 25  1  0  0  0  0
 24 49  1  0  0  0  0
 24 50  1  0  0  0  0
 25 51  1  0  0  0  0
 25 52  1  0  0  0  0
M  CHG  1  19   1
M  END
> <s_m_source_file>
AV-unprocessed.smi

> <i_m_source_file_index>
1830

> <i_lp_mmshare_version>
43012

> <i_f3d_flags>
0

> <s_epik_input>
W0NIMl0xW0NIMl1bQ0gyXVtDQEhdKE4xMilbQ0gyXU9bQ0BASF0oW0NIMl0yKVtDSDJdW05IXUMoPU8pW05IXWMzW2NIXVtjSF1bY0hdbmMzTjRbQ0gyXVtDSDJdW0NIMl1bQ0gyXTQ=

> <s_epik_cmdline>
J2VwaWtfcHl0aG9uJywgJy1waCcsICc3LjAnLCAnLXRuJywgJzgnLCAnLW1hJywgJzIwMCcsICctbWV0YWxfYmluZGluZycsICctaW1hZScsICc8aW5maWxlLm1hZT4nLCAnLW9tYWUnLCAnPG91dGZpbGUubWFlPic=

> <r_epik_Ionization_Penalty>
2.19264

> <r_epik_Ionization_Penalty_Charging>
1.12452

> <r_epik_Ionization_Penalty_Neutral>
1.06812

> <r_epik_State_Penalty>
2.334

> <r_epik_Charging_Adjusted_Penalty>
3.45852

> <i_epik_Tot_Q>
1

> <i_epik_Tot_abs_Q>
1

> <r_epik_Metal_State_Penalty>
2.41144

> <b_epik_Metal_Only>
0

> <s_lp_Force_Field>
OPLS_2005

> <r_lp_Energy>
84.0052

> <b_lp_Chiralities_Consistent>
1

> <s_lp_Variant>
AV-unprocessed.smi:1830-24

> <Gold.Version>
5.8.1

> <Gold.Id.Protein>
6NUR|6NUR_protein|mol2

> <Gold.PLP.Fitness>
48.8753

> <Gold.PLP.PLP>
-38.7710

> <Gold.PLP.part.hbond>
-5.3874

> <Gold.PLP.part.metal>
0.0000

> <Gold.PLP.part.buried>
-4.2821

> <Gold.PLP.part.nonpolar>
-29.7454

> <Gold.PLP.part.repulsive>
0.3878

> <Gold.PLP.ligand.clash>
0.0000

> <Gold.PLP.ligand.torsion>
0.9981

> <Gold.PLP.Chemscore.Hbond>
3.8960

> <Gold.PLP.Chemscore.CHOScore>
0.0000

> <Gold.PLP.Chemscore.Metal>
0.0000

> <Gold.Chemscore.Hbonds>
donor molecule, donor type, donor heavy atom, donor atom, acceptor molecule, acceptor atom, score
      L1  H     3    26       P1  7948  0.74
      L1  H    14    41       P1  7948  0.75
      P1  H  7989  7998       L1    13  0.98
      P1  H 10752 10764       L1     1  0.55

> <Gold.PLP.Chemscore.Internal.Correction>
0.4126

> <Gold.Rescore>
     Score         DG    S(hbond)    S(metal)    S(lipo)     H(rot)  DE(clash)    DE(int)     intcor
     18.57     -21.13       2.48        0.00      93.62       1.40       0.32       2.24       ----

> <Gold.Chemscore.Fitness>
18.5670

> <Gold.Chemscore.DG>
-21.1265

> <Gold.Chemscore.ZeroCoef>
-5.4800

> <Gold.Chemscore.Hbond>
2.4750

> <Gold.Chemscore.Metal>
0.0000

> <Gold.Chemscore.Lipo>
93.6203

> <Gold.Chemscore.Internal_Hbond>
0.0000

> <Gold.Chemscore.DEClash>
0.3210

> <Gold.Chemscore.DEInternal>
2.2386

> <Gold.Chemscore.Rot>
1.3959

> <Gold.Chemscore.Internal.Correction>
   9.000000E+99

> <Gold.Chemscore.Hbonds>
donor molecule, donor type, donor heavy atom, donor atom, acceptor molecule, acceptor atom, score
      L1  H     3    26       P1  7948  0.10
      L1  H    14    41       P1  7948  0.09
      P1  H  7989  7998       L1    13  0.46
      P1  H 10752 10764       L1     1  0.21

> <Gold.Chemscore.Hbond.Weighted>
-8.2666

> <Gold.Chemscore.Metal.Weighted>
-0.0000

> <Gold.Chemscore.Lipo.Weighted>
-10.9536

> <Gold.Chemscore.Internal_Hbond.Weighted>
0.0000

> <Gold.Chemscore.DEClash.Weighted>
0.3210

> <Gold.Chemscore.DEInternal.Weighted>
2.2386

> <Gold.Chemscore.Rot.Weighted>
3.5736

> <Gold.Chemscore.Internal.Correction.Weighted>
   9.000000E+99

> <Gold.Protein.RotatedTorsions>
[ 6907 6896 6895 6894 ] final  -46.11 input  -60.11 | X-H torsion
[ 7974 7965 7964 7962 ] final   26.73 input  175.53 | X-H torsion
[ 8008 7997 7996 7995 ] final  -92.37 input   59.86 | X-H torsion
[ 10167 10162 10161 10158 ] final -135.53 input  -65.29 | X-H torsion
[ 10718 10713 10712 10709 ] final  -74.48 input   66.30 | X-H torsion
[ 10763 10752 10751 10750 ] final  -42.62 input  -60.55 | X-H torsion
[ 11005 11000 10999 10996 ] final -117.65 input  -57.11 | X-H torsion

> <Gold.Protein.ActiveResidues>
 VAL166  LYS551  ARG553  GLY616  TRP617  ASP618  TYR619  PRO620  LYS621  CYS622 
 ASP623  PHE694  ASN695  SER759  ASP760  ASP761  ALA762  ILE779  LEU786  VAL792 
 PHE793  MET794  SER795  GLU796  ALA797  LYS798  CYS799  TRP800  GLU811  SER814 

> <Gold.Protein.RotatedAtoms>
  150.9147  134.8564  159.7448 H   0  0  0  0  0  0  0  0  0  0  0  0  # atno 6907 bound_to 6896
  152.4962  134.4307  159.9521 H   0  0  0  0  0  0  0  0  0  0  0  0  # atno 6908 bound_to 6896
  151.4346  133.3621  159.2808 H   0  0  0  0  0  0  0  0  0  0  0  0  # atno 6909 bound_to 6896
  146.1822  139.7288  142.8892 H   0  0  0  0  0  0  0  0  0  0  0  0  # atno 7974 bound_to 7965
  154.7223  140.0509  157.0651 H   0  0  0  0  0  0  0  0  0  0  0  0  # atno 8008 bound_to 7997
  155.0410  140.3168  155.4705 H   0  0  0  0  0  0  0  0  0  0  0  0  # atno 8009 bound_to 7997
  156.2820  140.2133  156.5534 H   0  0  0  0  0  0  0  0  0  0  0  0  # atno 8010 bound_to 7997
  139.8769  143.6887  152.2632 H   0  0  0  0  0  0  0  0  0  0  0  0  # atno 10167 bound_to 10162
  156.0241  130.4418  150.2899 H   0  0  0  0  0  0  0  0  0  0  0  0  # atno 10718 bound_to 10713
  153.9820  135.6716  153.4750 H   0  0  0  0  0  0  0  0  0  0  0  0  # atno 10763 bound_to 10752
  153.0744  135.4956  154.8370 H   0  0  0  0  0  0  0  0  0  0  0  0  # atno 10764 bound_to 10752
  154.7159  135.3107  154.9086 H   0  0  0  0  0  0  0  0  0  0  0  0  # atno 10765 bound_to 10752
  141.0340  133.9938  157.3099 H   0  0  0  0  0  0  0  0  0  0  0  0  # atno 11005 bound_to 11000
  145.4043  141.0389  143.3052 LP  0  0  0  0  0  0  0  0  0  0  0  0  # atno 17320 bound_to 7965
  144.8334  139.5590  143.6933 LP  0  0  0  0  0  0  0  0  0  0  0  0  # atno 17321 bound_to 7965
  139.7231  144.7598  151.0922 LP  0  0  0  0  0  0  0  0  0  0  0  0  # atno 17342 bound_to 10162
  140.7751  143.5182  150.9569 LP  0  0  0  0  0  0  0  0  0  0  0  0  # atno 17343 bound_to 10162
  157.1003  131.0194  151.3088 LP  0  0  0  0  0  0  0  0  0  0  0  0  # atno 17370 bound_to 10713
  157.4785  130.7751  149.7391 LP  0  0  0  0  0  0  0  0  0  0  0  0  # atno 17371 bound_to 10713
  139.9228  135.0201  156.8125 LP  0  0  0  0  0  0  0  0  0  0  0  0  # atno 17394 bound_to 11000
  140.6355  133.9866  155.7682 LP  0  0  0  0  0  0  0  0  0  0  0  0  # atno 17395 bound_to 11000

$$$$
