AV-unprocessed.smi:2695|AV-procd|sdf|10408|dock5
  -GOLD-   2272014443D 1   1.00000     0.00000
 Structure written by MMmdl.
 41 42  0  0  0  0  0  0  0  0  2 V2000
  149.8684  140.0866  155.0115 C   0  0  0  0  0  0  0  0  0  0  0  0
  150.8717  139.2291  155.7737 C   0  0  0  0  0  0  0  0  0  0  0  0
  151.7188  139.7938  156.6622 C   0  0  0  0  0  0  0  0  0  0  0  0
  152.6248  139.0356  157.3921 C   0  0  0  0  0  0  0  0  0  0  0  0
  153.4137  139.5537  158.2129 O   0  5  0  0  0  0  0  0  0  0  0  0
  152.5975  137.6671  157.1583 C   0  0  0  0  0  0  0  0  0  0  0  0
  151.7035  136.9999  156.2200 C   0  0  0  0  0  0  0  0  0  0  0  0
  151.7144  135.7777  156.0613 O   0  0  0  0  0  0  0  0  0  0  0  0
  150.8676  137.8290  155.5335 N   0  0  0  0  0  0  0  0  0  0  0  0
  149.9654  137.2375  154.5192 C   0  0  0  0  0  0  0  0  0  0  0  0
  149.1583  136.0429  155.0483 C   0  0  0  0  0  0  0  0  0  0  0  0
  149.1426  135.7737  156.2499 O   0  0  0  0  0  0  0  0  0  0  0  0
  148.4733  135.3469  154.1287 N   0  0  0  0  0  0  0  0  0  0  0  0
  147.6217  134.1855  154.3892 C   0  0  1  0  0  0  0  0  0  0  0  0
  146.7253  133.9386  153.1489 C   0  0  0  0  0  0  0  0  0  0  0  0
  147.5007  133.5243  151.8905 C   0  0  0  0  0  0  0  0  0  0  0  0
  146.5475  133.7856  150.7209 C   0  0  0  0  0  0  0  0  0  0  0  0
  145.5488  134.8428  151.2111 C   0  0  0  0  0  0  0  0  0  0  0  0
  145.9289  135.1556  152.6626 C   0  0  0  0  0  0  0  0  0  0  0  0
  148.5022  132.9728  154.7782 C   0  0  0  0  0  0  0  0  0  0  0  0
  147.8094  131.8393  154.6636 F   0  0  0  0  0  0  0  0  0  0  0  0
  149.5606  132.8771  153.9747 F   0  0  0  0  0  0  0  0  0  0  0  0
  148.9261  133.0875  156.0373 F   0  0  0  0  0  0  0  0  0  0  0  0
  149.8039  141.0841  155.4473 H   0  0  0  0  0  0  0  0  0  0  0  0
  148.8642  139.6647  155.0444 H   0  0  0  0  0  0  0  0  0  0  0  0
  150.1745  140.2020  153.9716 H   0  0  0  0  0  0  0  0  0  0  0  0
  151.6868  140.8640  156.8102 H   0  0  0  0  0  0  0  0  0  0  0  0
  153.2848  137.0386  157.7070 H   0  0  0  0  0  0  0  0  0  0  0  0
  149.2752  137.9660  154.0980 H   0  0  0  0  0  0  0  0  0  0  0  0
  150.5445  136.9148  153.6515 H   0  0  0  0  0  0  0  0  0  0  0  0
  148.5514  135.6404  153.1658 H   0  0  0  0  0  0  0  0  0  0  0  0
  146.9648  134.4103  155.2317 H   0  0  0  0  0  0  0  0  0  0  0  0
  146.0153  133.1421  153.3784 H   0  0  0  0  0  0  0  0  0  0  0  0
  148.3881  134.1499  151.7806 H   0  0  0  0  0  0  0  0  0  0  0  0
  147.8337  132.4863  151.9233 H   0  0  0  0  0  0  0  0  0  0  0  0
  147.0879  134.1137  149.8324 H   0  0  0  0  0  0  0  0  0  0  0  0
  146.0156  132.8700  150.4593 H   0  0  0  0  0  0  0  0  0  0  0  0
  145.5702  135.7413  150.5936 H   0  0  0  0  0  0  0  0  0  0  0  0
  144.5357  134.4408  151.1658 H   0  0  0  0  0  0  0  0  0  0  0  0
  145.0489  135.3538  153.2749 H   0  0  0  0  0  0  0  0  0  0  0  0
  146.5583  136.0464  152.6887 H   0  0  0  0  0  0  0  0  0  0  0  0
  1  2  1  0  0  0  0
  1 24  1  0  0  0  0
  1 25  1  0  0  0  0
  1 26  1  0  0  0  0
  2  9  1  0  0  0  0
  2  3  2  0  0  0  0
  3  4  1  0  0  0  0
  3 27  1  0  0  0  0
  4  5  1  0  0  0  0
  4  6  2  0  0  0  0
  6  7  1  0  0  0  0
  6 28  1  0  0  0  0
  7  8  2  0  0  0  0
  7  9  1  0  0  0  0
  9 10  1  0  0  0  0
 10 11  1  0  0  0  0
 10 29  1  0  0  0  0
 10 30  1  0  0  0  0
 11 12  2  0  0  0  0
 11 13  1  0  0  0  0
 13 14  1  0  0  0  0
 13 31  1  0  0  0  0
 14 15  1  0  0  0  0
 14 20  1  0  0  0  0
 14 32  1  0  0  0  0
 15 19  1  0  0  0  0
 15 16  1  0  0  0  0
 15 33  1  0  0  0  0
 16 17  1  0  0  0  0
 16 34  1  0  0  0  0
 16 35  1  0  0  0  0
 17 18  1  0  0  0  0
 17 36  1  0  0  0  0
 17 37  1  0  0  0  0
 18 19  1  0  0  0  0
 18 38  1  0  0  0  0
 18 39  1  0  0  0  0
 19 40  1  0  0  0  0
 19 41  1  0  0  0  0
 20 21  1  0  0  0  0
 20 22  1  0  0  0  0
 20 23  1  0  0  0  0
M  CHG  1   5  -1
M  END
> <s_m_source_file>
AV-unprocessed.smi

> <i_m_source_file_index>
2695

> <i_lp_mmshare_version>
43012

> <i_f3d_flags>
0

> <s_epik_input>
W0NIM11jMVtjSF1jKFtPSF0pW2NIXWMoPU8pbjFbQ0gyXUMoPU8pW05IXVtDQEBIXShDKEYpKEYpRilbQ0hdMltDSDJdW0NIMl1bQ0gyXVtDSDJdMg==

> <s_epik_cmdline>
J2VwaWtfcHl0aG9uJywgJy1waCcsICc3LjAnLCAnLXRuJywgJzgnLCAnLW1hJywgJzIwMCcsICctbWV0YWxfYmluZGluZycsICctaW1hZScsICc8aW5maWxlLm1hZT4nLCAnLW9tYWUnLCAnPG91dGZpbGUubWFlPic=

> <r_lp_tautomer_probability>
1

> <r_epik_Ionization_Penalty>
0.176977

> <r_epik_Ionization_Penalty_Charging>
0.176977

> <r_epik_Ionization_Penalty_Neutral>
1.44272e-07

> <r_epik_State_Penalty>
0.160849

> <r_epik_Charging_Adjusted_Penalty>
0.337826

> <i_epik_Tot_Q>
-1

> <i_epik_Tot_abs_Q>
1

> <r_epik_Metal_State_Penalty>
0.16085

> <b_epik_Metal_Only>
0

> <s_lp_Force_Field>
OPLS_2005

> <r_lp_Energy>
41.7446

> <b_lp_Chiralities_Consistent>
1

> <s_lp_Variant>
AV-unprocessed.smi:2695-2

> <Gold.Version>
5.8.1

> <Gold.Id.Protein>
6NUR|6NUR_protein|mol2

> <Gold.PLP.Fitness>
38.0495

> <Gold.PLP.PLP>
-27.3824

> <Gold.PLP.part.hbond>
-2.8848

> <Gold.PLP.part.metal>
0.0000

> <Gold.PLP.part.buried>
1.5913

> <Gold.PLP.part.nonpolar>
-25.4571

> <Gold.PLP.part.repulsive>
0.0518

> <Gold.PLP.ligand.clash>
0.0000

> <Gold.PLP.ligand.torsion>
0.8023

> <Gold.PLP.Chemscore.Hbond>
3.9913

> <Gold.PLP.Chemscore.CHOScore>
0.0000

> <Gold.PLP.Chemscore.Metal>
0.0000

> <Gold.Chemscore.Hbonds>
donor molecule, donor type, donor heavy atom, donor atom, acceptor molecule, acceptor atom, score
      L1  H    13    31       P1  7948  0.84
      P1  H  7997  8010       L1     5  1.40
      P1  H 10752 10763       L1     8  1.00

> <Gold.PLP.Chemscore.Internal.Correction>
0.2979

> <Gold.Rescore>
     Score         DG    S(hbond)    S(metal)    S(lipo)     H(rot)  DE(clash)    DE(int)     intcor
      9.04     -15.38       2.01        0.00      65.65       1.75       0.13       6.20       ----

> <Gold.Chemscore.Fitness>
9.0432

> <Gold.Chemscore.DG>
-15.3799

> <Gold.Chemscore.ZeroCoef>
-5.4800

> <Gold.Chemscore.Hbond>
2.0087

> <Gold.Chemscore.Metal>
0.0000

> <Gold.Chemscore.Lipo>
65.6469

> <Gold.Chemscore.Internal_Hbond>
0.0000

> <Gold.Chemscore.DEClash>
0.1345

> <Gold.Chemscore.DEInternal>
6.2022

> <Gold.Chemscore.Rot>
1.7539

> <Gold.Chemscore.Internal.Correction>
   9.000000E+99

> <Gold.Chemscore.Hbonds>
donor molecule, donor type, donor heavy atom, donor atom, acceptor molecule, acceptor atom, score
      L1  H    13    31       P1  7948  0.82
      P1  H  7997  8010       L1     5  0.07
      P1  H 10752 10763       L1     8  0.45

> <Gold.Chemscore.Hbond.Weighted>
-6.7091

> <Gold.Chemscore.Metal.Weighted>
-0.0000

> <Gold.Chemscore.Lipo.Weighted>
-7.6807

> <Gold.Chemscore.Internal_Hbond.Weighted>
0.0000

> <Gold.Chemscore.DEClash.Weighted>
0.1345

> <Gold.Chemscore.DEInternal.Weighted>
6.2022

> <Gold.Chemscore.Rot.Weighted>
4.4899

> <Gold.Chemscore.Internal.Correction.Weighted>
   9.000000E+99

> <Gold.Protein.RotatedTorsions>
[ 6907 6896 6895 6894 ] final    7.88 input  -60.11 | X-H torsion
[ 7974 7965 7964 7962 ] final   44.70 input  175.53 | X-H torsion
[ 8008 7997 7996 7995 ] final   39.17 input   59.86 | X-H torsion
[ 10167 10162 10161 10158 ] final  153.39 input  -65.29 | X-H torsion
[ 10718 10713 10712 10709 ] final -103.09 input   66.30 | X-H torsion
[ 10763 10752 10751 10750 ] final   79.98 input  -60.55 | X-H torsion
[ 11005 11000 10999 10996 ] final   12.16 input  -57.11 | X-H torsion

> <Gold.Protein.ActiveResidues>
 VAL166  LYS551  ARG553  GLY616  TRP617  ASP618  TYR619  PRO620  LYS621  CYS622 
 ASP623  PHE694  ASN695  SER759  ASP760  ASP761  ALA762  ILE779  LEU786  VAL792 
 PHE793  MET794  SER795  GLU796  ALA797  LYS798  CYS799  TRP800  GLU811  SER814 

> <Gold.Protein.RotatedAtoms>
  151.6969  135.0937  160.0243 H   0  0  0  0  0  0  0  0  0  0  0  0  # atno 6907 bound_to 6896
  152.3744  133.6457  159.6120 H   0  0  0  0  0  0  0  0  0  0  0  0  # atno 6908 bound_to 6896
  150.7698  133.9134  159.3417 H   0  0  0  0  0  0  0  0  0  0  0  0  # atno 6909 bound_to 6896
  146.0545  139.5045  142.9697 H   0  0  0  0  0  0  0  0  0  0  0  0  # atno 7974 bound_to 7965
  155.2323  140.3339  155.4302 H   0  0  0  0  0  0  0  0  0  0  0  0  # atno 8008 bound_to 7997
  156.2290  140.1842  156.7337 H   0  0  0  0  0  0  0  0  0  0  0  0  # atno 8009 bound_to 7997
  154.5946  140.0632  156.9271 H   0  0  0  0  0  0  0  0  0  0  0  0  # atno 8010 bound_to 7997
  139.4827  144.5277  151.7774 H   0  0  0  0  0  0  0  0  0  0  0  0  # atno 10167 bound_to 10162
  156.0252  130.5451  150.7203 H   0  0  0  0  0  0  0  0  0  0  0  0  # atno 10718 bound_to 10713
  153.0996  135.4819  154.8843 H   0  0  0  0  0  0  0  0  0  0  0  0  # atno 10763 bound_to 10752
  154.7364  135.3072  154.8806 H   0  0  0  0  0  0  0  0  0  0  0  0  # atno 10764 bound_to 10752
  153.9427  135.6832  153.4797 H   0  0  0  0  0  0  0  0  0  0  0  0  # atno 10765 bound_to 10752
  140.4950  134.0802  155.7780 H   0  0  0  0  0  0  0  0  0  0  0  0  # atno 11005 bound_to 11000
  145.6667  141.0227  143.1679 LP  0  0  0  0  0  0  0  0  0  0  0  0  # atno 17320 bound_to 7965
  144.7140  139.8263  143.7405 LP  0  0  0  0  0  0  0  0  0  0  0  0  # atno 17321 bound_to 7965
  140.4799  144.1464  150.5931 LP  0  0  0  0  0  0  0  0  0  0  0  0  # atno 17342 bound_to 10162
  140.4289  143.2577  151.9621 LP  0  0  0  0  0  0  0  0  0  0  0  0  # atno 17343 bound_to 10162
  157.4820  131.0903  151.0525 LP  0  0  0  0  0  0  0  0  0  0  0  0  # atno 17370 bound_to 10713
  157.0956  130.5960  149.5449 LP  0  0  0  0  0  0  0  0  0  0  0  0  # atno 17371 bound_to 10713
  141.1464  133.9047  157.2204 LP  0  0  0  0  0  0  0  0  0  0  0  0  # atno 17394 bound_to 11000
  139.9746  135.0118  156.9599 LP  0  0  0  0  0  0  0  0  0  0  0  0  # atno 17395 bound_to 11000

$$$$
