AV-unprocessed.smi:1324|AV-procd|sdf|5470|dock4
  -GOLD-   22720 5 43D 1   1.00000     0.00000
 Structure written by MMmdl.
 43 44  0  0  0  0  0  0  0  0  1 V2000
  146.2102  138.0325  152.5682 C   0  0  0  0  0  0  0  0  0  0  0  0
  147.1148  139.0611  153.2118 C   0  0  0  0  0  0  0  0  0  0  0  0
  146.5024  140.2850  153.4248 N   0  0  0  0  0  0  0  0  0  0  0  0
  147.2487  141.2875  154.0184 C   0  0  0  0  0  0  0  0  0  0  0  0
  146.5021  142.5943  154.2209 C   0  0  0  0  0  0  0  0  0  0  0  0
  148.5426  141.0835  154.3740 C   0  0  0  0  0  0  0  0  0  0  0  0
  149.4029  142.1635  155.0303 C   0  0  0  0  0  0  0  0  0  0  0  0
  150.0210  141.8110  156.3862 C   0  0  0  0  0  0  0  0  0  0  0  0
  150.1234  140.6376  156.7454 O   0  0  0  0  0  0  0  0  0  0  0  0
  150.4286  142.8495  157.1320 N   0  0  0  0  0  0  0  0  0  0  0  0
  151.0444  142.7578  158.4543 C   0  0  0  0  0  0  0  0  0  0  0  0
  151.4476  144.1753  158.9233 C   0  0  0  0  0  0  0  0  0  0  0  0
  152.4508  144.2734  160.0866 C   0  0  0  0  0  0  0  0  0  0  0  0
  152.3147  143.2019  161.1792 C   0  0  0  0  0  0  0  0  0  0  0  0
  153.0905  141.9171  160.8452 C   0  0  0  0  0  0  0  0  0  0  0  0
  152.4476  141.0427  159.7593 C   0  0  0  0  0  0  0  0  0  0  0  0
  152.2044  141.7420  158.4092 C   0  0  0  0  0  0  0  0  0  0  0  0
  149.1480  139.7578  154.1053 C   0  0  0  0  0  0  0  0  0  0  0  0
  150.3223  139.5180  154.3834 O   0  0  0  0  0  0  0  0  0  0  0  0
  148.3438  138.7702  153.5132 N   0  0  0  0  0  0  0  0  0  0  0  0
  145.5437  140.4799  153.1745 H   0  0  0  0  0  0  0  0  0  0  0  0
  146.6697  137.0434  152.5867 H   0  0  0  0  0  0  0  0  0  0  0  0
  146.0143  138.2990  151.5291 H   0  0  0  0  0  0  0  0  0  0  0  0
  145.2587  137.9742  153.0979 H   0  0  0  0  0  0  0  0  0  0  0  0
  146.4311  142.8318  155.2825 H   0  0  0  0  0  0  0  0  0  0  0  0
  145.4885  142.5448  153.8209 H   0  0  0  0  0  0  0  0  0  0  0  0
  147.0205  143.4106  153.7172 H   0  0  0  0  0  0  0  0  0  0  0  0
  148.8330  143.0874  155.1355 H   0  0  0  0  0  0  0  0  0  0  0  0
  150.2182  142.4171  154.3527 H   0  0  0  0  0  0  0  0  0  0  0  0
  150.3018  143.7779  156.7558 H   0  0  0  0  0  0  0  0  0  0  0  0
  150.2917  142.3667  159.1414 H   0  0  0  0  0  0  0  0  0  0  0  0
  151.8599  144.7375  158.0840 H   0  0  0  0  0  0  0  0  0  0  0  0
  150.5382  144.7066  159.2072 H   0  0  0  0  0  0  0  0  0  0  0  0
  153.4671  144.2576  159.6909 H   0  0  0  0  0  0  0  0  0  0  0  0
  152.3386  145.2584  160.5409 H   0  0  0  0  0  0  0  0  0  0  0  0
  152.7328  143.6080  162.1008 H   0  0  0  0  0  0  0  0  0  0  0  0
  151.2671  142.9889  161.3955 H   0  0  0  0  0  0  0  0  0  0  0  0
  154.1129  142.1664  160.5591 H   0  0  0  0  0  0  0  0  0  0  0  0
  153.1783  141.3190  161.7527 H   0  0  0  0  0  0  0  0  0  0  0  0
  153.0965  140.1825  159.5915 H   0  0  0  0  0  0  0  0  0  0  0  0
  151.5091  140.6302  160.1315 H   0  0  0  0  0  0  0  0  0  0  0  0
  151.9608  140.9592  157.6891 H   0  0  0  0  0  0  0  0  0  0  0  0
  153.1182  142.2091  158.0400 H   0  0  0  0  0  0  0  0  0  0  0  0
  1 22  1  0  0  0  0
  1 23  1  0  0  0  0
  1 24  1  0  0  0  0
  1  2  1  0  0  0  0
  2  3  1  0  0  0  0
  2 20  2  0  0  0  0
  3  4  1  0  0  0  0
  3 21  1  0  0  0  0
  4  6  2  0  0  0  0
  4  5  1  0  0  0  0
  5 25  1  0  0  0  0
  5 26  1  0  0  0  0
  5 27  1  0  0  0  0
  6 18  1  0  0  0  0
  6  7  1  0  0  0  0
  7  8  1  0  0  0  0
  7 28  1  0  0  0  0
  7 29  1  0  0  0  0
  8  9  2  0  0  0  0
  8 10  1  0  0  0  0
 10 11  1  0  0  0  0
 10 30  1  0  0  0  0
 11 17  1  0  0  0  0
 11 12  1  0  0  0  0
 11 31  1  0  0  0  0
 12 13  1  0  0  0  0
 12 32  1  0  0  0  0
 12 33  1  0  0  0  0
 13 14  1  0  0  0  0
 13 34  1  0  0  0  0
 13 35  1  0  0  0  0
 14 15  1  0  0  0  0
 14 36  1  0  0  0  0
 14 37  1  0  0  0  0
 15 16  1  0  0  0  0
 15 38  1  0  0  0  0
 15 39  1  0  0  0  0
 16 17  1  0  0  0  0
 16 40  1  0  0  0  0
 16 41  1  0  0  0  0
 17 42  1  0  0  0  0
 17 43  1  0  0  0  0
 18 19  2  0  0  0  0
 18 20  1  0  0  0  0
M  END
> <s_m_source_file>
AV-unprocessed.smi

> <i_m_source_file_index>
1324

> <i_lp_mmshare_version>
43012

> <i_f3d_flags>
0

> <s_epik_input>
W0NIM11jMW5jKFtDSDNdKWMoYyg9TylbbkhdMSlbQ0gyXUMoPU8pW05IXVtDSF0yW0NIMl1bQ0gyXVtDSDJdW0NIMl1bQ0gyXVtDSDJdMg==

> <s_epik_cmdline>
J2VwaWtfcHl0aG9uJywgJy1waCcsICc3LjAnLCAnLXRuJywgJzgnLCAnLW1hJywgJzIwMCcsICctbWV0YWxfYmluZGluZycsICctaW1hZScsICc8aW5maWxlLm1hZT4nLCAnLW9tYWUnLCAnPG91dGZpbGUubWFlPic=

> <r_lp_tautomer_probability>
0.156392

> <r_epik_Ionization_Penalty>
0.0140222

> <r_epik_Ionization_Penalty_Charging>
0.0138986

> <r_epik_Ionization_Penalty_Neutral>
0.000123575

> <r_epik_State_Penalty>
1.53084

> <r_epik_Charging_Adjusted_Penalty>
1.54474

> <i_epik_Tot_Q>
0

> <i_epik_Tot_abs_Q>
0

> <r_epik_Metal_State_Penalty>
1.70646

> <b_epik_Metal_Only>
0

> <s_lp_Force_Field>
OPLS_2005

> <r_lp_Energy>
20.3035

> <b_lp_Chiralities_Consistent>
1

> <s_lp_Variant>
AV-unprocessed.smi:1324-2

> <Gold.Version>
5.8.1

> <Gold.Id.Protein>
6NUR|6NUR_protein|mol2

> <Gold.PLP.Fitness>
48.8242

> <Gold.PLP.PLP>
-41.3679

> <Gold.PLP.part.hbond>
-3.0000

> <Gold.PLP.part.metal>
0.0000

> <Gold.PLP.part.buried>
-0.6662

> <Gold.PLP.part.nonpolar>
-39.0867

> <Gold.PLP.part.repulsive>
1.9923

> <Gold.PLP.ligand.clash>
0.0000

> <Gold.PLP.ligand.torsion>
0.3243

> <Gold.PLP.Chemscore.Hbond>
2.6953

> <Gold.PLP.Chemscore.CHOScore>
0.0000

> <Gold.PLP.Chemscore.Metal>
0.0000

> <Gold.Chemscore.Hbonds>
donor molecule, donor type, donor heavy atom, donor atom, acceptor molecule, acceptor atom, score
      L1  H     3    21       P1 10175  1.00
      L1  H    10    30       P1  8028  0.74
      P1  H  7989  7998       L1    19  0.89

> <Gold.PLP.Chemscore.Internal.Correction>
0.0191

> <Gold.Rescore>
     Score         DG    S(hbond)    S(metal)    S(lipo)     H(rot)  DE(clash)    DE(int)     intcor
     15.95     -23.60       2.69        0.00     110.55       1.48       3.64       4.01       ----

> <Gold.Chemscore.Fitness>
15.9534

> <Gold.Chemscore.DG>
-23.5992

> <Gold.Chemscore.ZeroCoef>
-5.4800

> <Gold.Chemscore.Hbond>
2.6870

> <Gold.Chemscore.Metal>
0.0000

> <Gold.Chemscore.Lipo>
110.5456

> <Gold.Chemscore.Internal_Hbond>
0.0000

> <Gold.Chemscore.DEClash>
3.6402

> <Gold.Chemscore.DEInternal>
4.0057

> <Gold.Chemscore.Rot>
1.4801

> <Gold.Chemscore.Internal.Correction>
   9.000000E+99

> <Gold.Chemscore.Hbonds>
donor molecule, donor type, donor heavy atom, donor atom, acceptor molecule, acceptor atom, score
      L1  H     3    21       P1 10175  0.90
      L1  H    10    30       P1  8028  0.70
      P1  H  7989  7998       L1    19  0.70

> <Gold.Chemscore.Hbond.Weighted>
-8.9745

> <Gold.Chemscore.Metal.Weighted>
-0.0000

> <Gold.Chemscore.Lipo.Weighted>
-12.9338

> <Gold.Chemscore.Internal_Hbond.Weighted>
0.0000

> <Gold.Chemscore.DEClash.Weighted>
3.6402

> <Gold.Chemscore.DEInternal.Weighted>
4.0057

> <Gold.Chemscore.Rot.Weighted>
3.7891

> <Gold.Chemscore.Internal.Correction.Weighted>
   9.000000E+99

> <Gold.Protein.RotatedTorsions>
[ 6907 6896 6895 6894 ] final   64.20 input  -60.11 | X-H torsion
[ 7974 7965 7964 7962 ] final  173.02 input  175.53 | X-H torsion
[ 8008 7997 7996 7995 ] final  -48.66 input   59.86 | X-H torsion
[ 10167 10162 10161 10158 ] final   40.75 input  -65.29 | X-H torsion
[ 10718 10713 10712 10709 ] final   21.65 input   66.30 | X-H torsion
[ 10763 10752 10751 10750 ] final   34.56 input  -60.55 | X-H torsion
[ 11005 11000 10999 10996 ] final   98.74 input  -57.11 | X-H torsion

> <Gold.Protein.ActiveResidues>
 VAL166  LYS551  ARG553  GLY616  TRP617  ASP618  TYR619  PRO620  LYS621  CYS622 
 ASP623  PHE694  ASN695  SER759  ASP760  ASP761  ALA762  ILE779  LEU786  VAL792 
 PHE793  MET794  SER795  GLU796  ALA797  LYS798  CYS799  TRP800  GLU811  SER814 

> <Gold.Protein.RotatedAtoms>
  152.4313  134.5772  159.9937 H   0  0  0  0  0  0  0  0  0  0  0  0  # atno 6907 bound_to 6896
  151.5895  133.3362  159.3032 H   0  0  0  0  0  0  0  0  0  0  0  0  # atno 6908 bound_to 6896
  150.8206  134.7447  159.6834 H   0  0  0  0  0  0  0  0  0  0  0  0  # atno 6909 bound_to 6896
  144.7254  139.9585  143.6434 H   0  0  0  0  0  0  0  0  0  0  0  0  # atno 7974 bound_to 7965
  154.4032  140.1316  156.4376 H   0  0  0  0  0  0  0  0  0  0  0  0  # atno 8008 bound_to 7997
  155.7490  140.3488  155.5121 H   0  0  0  0  0  0  0  0  0  0  0  0  # atno 8009 bound_to 7997
  155.8967  140.1012  157.1370 H   0  0  0  0  0  0  0  0  0  0  0  0  # atno 8010 bound_to 7997
  140.3711  144.2103  150.6133 H   0  0  0  0  0  0  0  0  0  0  0  0  # atno 10167 bound_to 10162
  157.1414  130.6634  149.5982 H   0  0  0  0  0  0  0  0  0  0  0  0  # atno 10718 bound_to 10713
  153.0158  135.6357  154.1688 H   0  0  0  0  0  0  0  0  0  0  0  0  # atno 10763 bound_to 10752
  154.1427  135.2833  155.3158 H   0  0  0  0  0  0  0  0  0  0  0  0  # atno 10764 bound_to 10752
  154.6112  135.5555  153.7537 H   0  0  0  0  0  0  0  0  0  0  0  0  # atno 10765 bound_to 10752
  139.8772  134.9063  156.4501 H   0  0  0  0  0  0  0  0  0  0  0  0  # atno 11005 bound_to 11000
  146.0656  139.3647  143.0554 LP  0  0  0  0  0  0  0  0  0  0  0  0  # atno 17320 bound_to 7965
  145.8035  140.9759  143.0986 LP  0  0  0  0  0  0  0  0  0  0  0  0  # atno 17321 bound_to 7965
  140.5032  143.2312  151.8647 LP  0  0  0  0  0  0  0  0  0  0  0  0  # atno 17342 bound_to 10162
  139.4803  144.5036  151.9028 LP  0  0  0  0  0  0  0  0  0  0  0  0  # atno 17343 bound_to 10162
  155.9788  130.4776  150.6676 LP  0  0  0  0  0  0  0  0  0  0  0  0  # atno 17370 bound_to 10713
  157.4303  131.0848  151.1045 LP  0  0  0  0  0  0  0  0  0  0  0  0  # atno 17371 bound_to 10713
  140.8938  133.7829  155.9601 LP  0  0  0  0  0  0  0  0  0  0  0  0  # atno 17394 bound_to 11000
  140.8725  134.2709  157.5184 LP  0  0  0  0  0  0  0  0  0  0  0  0  # atno 17395 bound_to 11000

$$$$
