AV-unprocessed.smi:1244|AV-procd|sdf|5226|dock6
  -GOLD-   22720 4323D 1   1.00000     0.00000
 Structure written by MMmdl.
 55 57  0  0  0  0  0  0  0  0  2 V2000
  153.2893  138.8097  155.2095 C   0  0  0  0  0  0  0  0  0  0  0  0
  151.7653  138.7939  155.3684 C   0  0  2  0  0  0  0  0  0  0  0  0
  151.1001  137.7334  154.4676 C   0  0  0  0  0  0  0  0  0  0  0  0
  149.6217  137.7868  154.5739 N   0  3  1  0  0  0  0  0  0  0  0  0
  149.0910  137.1620  155.8141 C   0  0  0  0  0  0  0  0  0  0  0  0
  149.5874  135.7156  155.9979 C   0  0  0  0  0  0  0  0  0  0  0  0
  148.7697  134.9920  156.9643 N   0  0  0  0  0  0  0  0  0  0  0  0
  149.1574  133.8868  157.6165 C   0  0  0  0  0  0  0  0  0  0  0  0
  150.2605  133.3624  157.4622 O   0  0  0  0  0  0  0  0  0  0  0  0
  148.1979  133.4525  158.4505 N   0  0  0  0  0  0  0  0  0  0  0  0
  148.2436  132.3544  159.3563 C   0  0  0  0  0  0  0  0  0  0  0  0
  148.9355  131.1577  159.0457 C   0  0  0  0  0  0  0  0  0  0  0  0
  148.8935  130.0818  159.9490 C   0  0  0  0  0  0  0  0  0  0  0  0
  148.1454  130.2328  161.1283 C   0  0  0  0  0  0  0  0  0  0  0  0
  147.4687  131.3583  161.4318 N   0  0  0  0  0  0  0  0  0  0  0  0
  147.5117  132.4098  160.5772 C   0  0  0  0  0  0  0  0  0  0  0  0
  146.7979  133.5701  160.9547 N   0  0  0  0  0  0  0  0  0  0  0  0
  145.7404  133.4953  161.9572 C   0  0  0  0  0  0  0  0  0  0  0  0
  145.4925  134.9415  162.3760 C   0  0  0  0  0  0  0  0  0  0  0  0
  146.8940  135.5416  162.3159 C   0  0  0  0  0  0  0  0  0  0  0  0
  147.5556  134.8032  161.1470 C   0  0  0  0  0  0  0  0  0  0  0  0
  149.1351  139.1668  154.3173 C   0  0  0  0  0  0  0  0  0  0  0  0
  149.8644  140.2038  155.1997 C   0  0  2  0  0  0  0  0  0  0  0  0
  149.4632  141.6404  154.8479 C   0  0  0  0  0  0  0  0  0  0  0  0
  151.2695  140.0786  155.0078 O   0  0  0  0  0  0  0  0  0  0  0  0
  153.7224  137.8474  155.4835 H   0  0  0  0  0  0  0  0  0  0  0  0
  153.7397  139.5699  155.8483 H   0  0  0  0  0  0  0  0  0  0  0  0
  153.5775  139.0263  154.1805 H   0  0  0  0  0  0  0  0  0  0  0  0
  151.5317  138.5972  156.4160 H   0  0  0  0  0  0  0  0  0  0  0  0
  151.3731  137.9170  153.4274 H   0  0  0  0  0  0  0  0  0  0  0  0
  151.4651  136.7334  154.7056 H   0  0  0  0  0  0  0  0  0  0  0  0
  149.4249  137.7404  156.6768 H   0  0  0  0  0  0  0  0  0  0  0  0
  148.0020  137.2052  155.8261 H   0  0  0  0  0  0  0  0  0  0  0  0
  149.5929  135.1692  155.0544 H   0  0  0  0  0  0  0  0  0  0  0  0
  150.6164  135.7191  156.3586 H   0  0  0  0  0  0  0  0  0  0  0  0
  147.8489  135.3605  157.1540 H   0  0  0  0  0  0  0  0  0  0  0  0
  147.3778  134.0367  158.5272 H   0  0  0  0  0  0  0  0  0  0  0  0
  149.4788  131.0367  158.1212 H   0  0  0  0  0  0  0  0  0  0  0  0
  149.4123  129.1588  159.7367 H   0  0  0  0  0  0  0  0  0  0  0  0
  148.0827  129.4269  161.8444 H   0  0  0  0  0  0  0  0  0  0  0  0
  144.8412  133.0303  161.5517 H   0  0  0  0  0  0  0  0  0  0  0  0
  146.0656  132.9182  162.8237 H   0  0  0  0  0  0  0  0  0  0  0  0
  144.8443  135.4356  161.6508 H   0  0  0  0  0  0  0  0  0  0  0  0
  145.0310  135.0263  163.3602 H   0  0  0  0  0  0  0  0  0  0  0  0
  146.8897  136.6241  162.1860 H   0  0  0  0  0  0  0  0  0  0  0  0
  147.4272  135.3164  163.2405 H   0  0  0  0  0  0  0  0  0  0  0  0
  148.6115  134.6114  161.3439 H   0  0  0  0  0  0  0  0  0  0  0  0
  147.4845  135.4050  160.2408 H   0  0  0  0  0  0  0  0  0  0  0  0
  149.3191  139.3954  153.2665 H   0  0  0  0  0  0  0  0  0  0  0  0
  148.0568  139.2354  154.4564 H   0  0  0  0  0  0  0  0  0  0  0  0
  149.6314  140.0374  156.2521 H   0  0  0  0  0  0  0  0  0  0  0  0
  148.3925  141.7938  154.9858 H   0  0  0  0  0  0  0  0  0  0  0  0
  149.7046  141.8766  153.8110 H   0  0  0  0  0  0  0  0  0  0  0  0
  149.9851  142.3570  155.4827 H   0  0  0  0  0  0  0  0  0  0  0  0
  149.2721  137.2120  153.8204 H   0  0  0  0  0  0  0  0  0  0  0  0
  1  2  1  0  0  0  0
  1 26  1  0  0  0  0
  1 27  1  0  0  0  0
  1 28  1  0  0  0  0
  2 25  1  0  0  0  0
  2  3  1  0  0  0  0
  2 29  1  0  0  0  0
  3  4  1  0  0  0  0
  3 30  1  0  0  0  0
  3 31  1  0  0  0  0
  4  5  1  0  0  0  0
  4 22  1  0  0  0  0
  4 55  1  0  0  0  0
  5  6  1  0  0  0  0
  5 32  1  0  0  0  0
  5 33  1  0  0  0  0
  6  7  1  0  0  0  0
  6 34  1  0  0  0  0
  6 35  1  0  0  0  0
  7  8  1  0  0  0  0
  7 36  1  0  0  0  0
  8  9  2  0  0  0  0
  8 10  1  0  0  0  0
 10 11  1  0  0  0  0
 10 37  1  0  0  0  0
 11 16  1  0  0  0  0
 11 12  2  0  0  0  0
 12 13  1  0  0  0  0
 12 38  1  0  0  0  0
 13 14  2  0  0  0  0
 13 39  1  0  0  0  0
 14 15  1  0  0  0  0
 14 40  1  0  0  0  0
 15 16  2  0  0  0  0
 16 17  1  0  0  0  0
 17 21  1  0  0  0  0
 17 18  1  0  0  0  0
 18 19  1  0  0  0  0
 18 41  1  0  0  0  0
 18 42  1  0  0  0  0
 19 20  1  0  0  0  0
 19 43  1  0  0  0  0
 19 44  1  0  0  0  0
 20 21  1  0  0  0  0
 20 45  1  0  0  0  0
 20 46  1  0  0  0  0
 21 47  1  0  0  0  0
 21 48  1  0  0  0  0
 22 23  1  0  0  0  0
 22 49  1  0  0  0  0
 22 50  1  0  0  0  0
 23 24  1  0  0  0  0
 23 25  1  0  0  0  0
 23 51  1  0  0  0  0
 24 52  1  0  0  0  0
 24 53  1  0  0  0  0
 24 54  1  0  0  0  0
M  CHG  1   4   1
M  END
> <s_m_source_file>
AV-unprocessed.smi

> <i_m_source_file_index>
1244

> <i_lp_mmshare_version>
43012

> <i_f3d_flags>
0

> <s_epik_input>
W0NIM11bQ0BASF0xW0NIMl1OKFtDSDJdW0NASF0oTzEpW0NIM10pW0NIMl1bQ0gyXVtOSF1DKD1PKVtOSF1jMltjSF1bY0hdW2NIXW5jMk4zW0NIMl1bQ0gyXVtDSDJdW0NIMl0z

> <s_epik_cmdline>
J2VwaWtfcHl0aG9uJywgJy1waCcsICc3LjAnLCAnLXRuJywgJzgnLCAnLW1hJywgJzIwMCcsICctbWV0YWxfYmluZGluZycsICctaW1hZScsICc8aW5maWxlLm1hZT4nLCAnLW9tYWUnLCAnPG91dGZpbGUubWFlPic=

> <r_lp_tautomer_probability>
1

> <r_epik_Ionization_Penalty>
0.684913

> <r_epik_Ionization_Penalty_Charging>
0.602531

> <r_epik_Ionization_Penalty_Neutral>
0.0823829

> <r_epik_State_Penalty>
0.678827

> <r_epik_Charging_Adjusted_Penalty>
1.28136

> <i_epik_Tot_Q>
1

> <i_epik_Tot_abs_Q>
1

> <r_epik_Metal_State_Penalty>
0.67806

> <b_epik_Metal_Only>
0

> <s_lp_Force_Field>
OPLS_2005

> <r_lp_Energy>
44.826

> <b_lp_Chiralities_Consistent>
1

> <s_lp_Variant>
AV-unprocessed.smi:1244-6

> <Gold.Version>
5.8.1

> <Gold.Id.Protein>
6NUR|6NUR_protein|mol2

> <Gold.PLP.Fitness>
49.3782

> <Gold.PLP.PLP>
-38.5074

> <Gold.PLP.part.hbond>
-3.0000

> <Gold.PLP.part.metal>
0.0000

> <Gold.PLP.part.buried>
-2.6453

> <Gold.PLP.part.nonpolar>
-32.8097

> <Gold.PLP.part.repulsive>
0.2031

> <Gold.PLP.ligand.clash>
0.0000

> <Gold.PLP.ligand.torsion>
0.7301

> <Gold.PLP.Chemscore.Hbond>
3.9920

> <Gold.PLP.Chemscore.CHOScore>
0.0000

> <Gold.PLP.Chemscore.Metal>
0.0000

> <Gold.Chemscore.Hbonds>
donor molecule, donor type, donor heavy atom, donor atom, acceptor molecule, acceptor atom, score
      L1  H     4    55       P1  7948  1.20
      P1  H  6896  6909       L1     9  0.99
      P1  H  7989  7998       L1    25  1.00

> <Gold.PLP.Chemscore.Internal.Correction>
0.3550

> <Gold.Rescore>
     Score         DG    S(hbond)    S(metal)    S(lipo)     H(rot)  DE(clash)    DE(int)     intcor
     17.53     -19.37       2.00        0.00      96.64       1.60       0.06       1.77       ----

> <Gold.Chemscore.Fitness>
17.5347

> <Gold.Chemscore.DG>
-19.3663

> <Gold.Chemscore.ZeroCoef>
-5.4800

> <Gold.Chemscore.Hbond>
1.9970

> <Gold.Chemscore.Metal>
0.0000

> <Gold.Chemscore.Lipo>
96.6397

> <Gold.Chemscore.Internal_Hbond>
0.0000

> <Gold.Chemscore.DEClash>
0.0645

> <Gold.Chemscore.DEInternal>
1.7671

> <Gold.Chemscore.Rot>
1.5978

> <Gold.Chemscore.Internal.Correction>
   9.000000E+99

> <Gold.Chemscore.Hbonds>
donor molecule, donor type, donor heavy atom, donor atom, acceptor molecule, acceptor atom, score
      L1  H     4    55       P1  7948  0.60
      P1  H  6896  6909       L1     9  0.37
      P1  H  7989  7998       L1    25  0.60

> <Gold.Chemscore.Hbond.Weighted>
-6.6699

> <Gold.Chemscore.Metal.Weighted>
-0.0000

> <Gold.Chemscore.Lipo.Weighted>
-11.3068

> <Gold.Chemscore.Internal_Hbond.Weighted>
0.0000

> <Gold.Chemscore.DEClash.Weighted>
0.0645

> <Gold.Chemscore.DEInternal.Weighted>
1.7671

> <Gold.Chemscore.Rot.Weighted>
4.0905

> <Gold.Chemscore.Internal.Correction.Weighted>
   9.000000E+99

> <Gold.Protein.RotatedTorsions>
[ 6907 6896 6895 6894 ] final  -22.29 input  -60.11 | X-H torsion
[ 7974 7965 7964 7962 ] final   79.54 input  175.53 | X-H torsion
[ 8008 7997 7996 7995 ] final  -25.63 input   59.86 | X-H torsion
[ 10167 10162 10161 10158 ] final   32.76 input  -65.29 | X-H torsion
[ 10718 10713 10712 10709 ] final -125.99 input   66.30 | X-H torsion
[ 10763 10752 10751 10750 ] final -127.29 input  -60.55 | X-H torsion
[ 11005 11000 10999 10996 ] final -107.24 input  -57.11 | X-H torsion

> <Gold.Protein.ActiveResidues>
 VAL166  LYS551  ARG553  GLY616  TRP617  ASP618  TYR619  PRO620  LYS621  CYS622 
 ASP623  PHE694  ASN695  SER759  ASP760  ASP761  ALA762  ILE779  LEU786  VAL792 
 PHE793  MET794  SER795  GLU796  ALA797  LYS798  CYS799  TRP800  GLU811  SER814 

> <Gold.Protein.RotatedAtoms>
  151.2207  135.0517  159.8948 H   0  0  0  0  0  0  0  0  0  0  0  0  # atno 6907 bound_to 6896
  152.5415  134.0643  159.8176 H   0  0  0  0  0  0  0  0  0  0  0  0  # atno 6908 bound_to 6896
  151.0809  133.5343  159.2652 H   0  0  0  0  0  0  0  0  0  0  0  0  # atno 6909 bound_to 6896
  145.6628  139.2476  143.1913 H   0  0  0  0  0  0  0  0  0  0  0  0  # atno 7974 bound_to 7965
  154.4466  140.1921  156.0649 H   0  0  0  0  0  0  0  0  0  0  0  0  # atno 8008 bound_to 7997
  156.0555  140.3303  155.7373 H   0  0  0  0  0  0  0  0  0  0  0  0  # atno 8009 bound_to 7997
  155.5492  140.0593  157.2844 H   0  0  0  0  0  0  0  0  0  0  0  0  # atno 8010 bound_to 7997
  140.4469  144.1106  150.6184 H   0  0  0  0  0  0  0  0  0  0  0  0  # atno 10167 bound_to 10162
  156.1725  130.6677  151.0198 H   0  0  0  0  0  0  0  0  0  0  0  0  # atno 10718 bound_to 10713
  154.8751  135.3967  154.3569 H   0  0  0  0  0  0  0  0  0  0  0  0  # atno 10763 bound_to 10752
  153.4347  135.7026  153.6213 H   0  0  0  0  0  0  0  0  0  0  0  0  # atno 10764 bound_to 10752
  153.4820  135.3767  155.2416 H   0  0  0  0  0  0  0  0  0  0  0  0  # atno 10765 bound_to 10752
  141.0964  133.8963  157.1952 H   0  0  0  0  0  0  0  0  0  0  0  0  # atno 11005 bound_to 11000
  146.1111  140.7427  142.9503 LP  0  0  0  0  0  0  0  0  0  0  0  0  # atno 17320 bound_to 7965
  144.7083  140.3940  143.7100 LP  0  0  0  0  0  0  0  0  0  0  0  0  # atno 17321 bound_to 7965
  140.4253  143.2593  151.9664 LP  0  0  0  0  0  0  0  0  0  0  0  0  # atno 17342 bound_to 10162
  139.4793  144.5794  151.7958 LP  0  0  0  0  0  0  0  0  0  0  0  0  # atno 17343 bound_to 10162
  157.6813  131.0837  150.7363 LP  0  0  0  0  0  0  0  0  0  0  0  0  # atno 17370 bound_to 10713
  156.7422  130.4742  149.5475 LP  0  0  0  0  0  0  0  0  0  0  0  0  # atno 17371 bound_to 10713
  139.9802  135.0100  156.9731 LP  0  0  0  0  0  0  0  0  0  0  0  0  # atno 17394 bound_to 11000
  140.5129  134.0984  155.7274 LP  0  0  0  0  0  0  0  0  0  0  0  0  # atno 17395 bound_to 11000

$$$$
