AV-unprocessed.smi:2777|AV-procd|sdf|10708|dock5
  -GOLD-   2272015143D 1   1.00000     0.00000
 Structure written by MMmdl.
 31 32  0  0  0  0  0  0  0  0  1 V2000
  154.6463  139.7445  160.6235 C   0  0  0  0  0  0  0  0  0  0  0  0
  153.7037  140.8293  160.2903 N   0  0  0  0  0  0  0  0  0  0  0  0
  153.0295  140.7590  159.0993 C   0  0  0  0  0  0  0  0  0  0  0  0
  153.1445  139.8487  158.2783 O   0  0  0  0  0  0  0  0  0  0  0  0
  152.1222  141.8871  158.8631 C   0  0  0  0  0  0  0  0  0  0  0  0
  151.9625  142.9005  159.7484 C   0  0  0  0  0  0  0  0  0  0  0  0
  151.0438  143.8368  159.2880 N   0  0  0  0  0  0  0  0  0  0  0  0
  150.6885  143.3213  158.1107 C   0  0  0  0  0  0  0  0  0  0  0  0
  151.2852  142.1578  157.7803 N   0  0  0  0  0  0  0  0  0  0  0  0
  151.0656  141.4029  156.5556 C   0  0  0  0  0  0  0  0  0  0  0  0
  149.6954  140.6943  156.5311 C   0  0  2  0  0  0  0  0  0  0  0  0
  149.7316  139.5329  157.3389 O   0  0  0  0  0  0  0  0  0  0  0  0
  149.2521  140.3065  155.1078 C   0  0  0  0  0  0  0  0  0  0  0  0
  148.0774  139.6774  155.1476 F   0  0  0  0  0  0  0  0  0  0  0  0
  149.1027  141.4096  154.3744 F   0  0  0  0  0  0  0  0  0  0  0  0
  150.1589  139.5242  154.5209 F   0  0  0  0  0  0  0  0  0  0  0  0
  152.7059  142.8748  160.9541 N   0  0  0  0  0  0  0  0  0  0  0  0
  152.5040  143.9871  161.8872 C   0  0  0  0  0  0  0  0  0  0  0  0
  153.5746  141.8448  161.2230 C   0  0  0  0  0  0  0  0  0  0  0  0
  154.2238  141.8261  162.2724 O   0  0  0  0  0  0  0  0  0  0  0  0
  154.7297  138.9597  159.8710 H   0  0  0  0  0  0  0  0  0  0  0  0
  154.3480  139.2530  161.5511 H   0  0  0  0  0  0  0  0  0  0  0  0
  155.6515  140.1446  160.7648 H   0  0  0  0  0  0  0  0  0  0  0  0
  149.9693  143.8055  157.4665 H   0  0  0  0  0  0  0  0  0  0  0  0
  151.1336  142.0979  155.7180 H   0  0  0  0  0  0  0  0  0  0  0  0
  151.8785  140.6919  156.4156 H   0  0  0  0  0  0  0  0  0  0  0  0
  148.9466  141.3619  156.9597 H   0  0  0  0  0  0  0  0  0  0  0  0
  149.2384  138.8515  156.9087 H   0  0  0  0  0  0  0  0  0  0  0  0
  153.1026  143.9278  162.7965 H   0  0  0  0  0  0  0  0  0  0  0  0
  151.4574  144.0312  162.1907 H   0  0  0  0  0  0  0  0  0  0  0  0
  152.7502  144.9307  161.3990 H   0  0  0  0  0  0  0  0  0  0  0  0
  1  2  1  0  0  0  0
  1 21  1  0  0  0  0
  1 22  1  0  0  0  0
  1 23  1  0  0  0  0
  2 19  1  0  0  0  0
  2  3  1  0  0  0  0
  3  4  2  0  0  0  0
  3  5  1  0  0  0  0
  5  9  1  0  0  0  0
  5  6  2  0  0  0  0
  6  7  1  0  0  0  0
  6 17  1  0  0  0  0
  7  8  2  0  0  0  0
  8  9  1  0  0  0  0
  8 24  1  0  0  0  0
  9 10  1  0  0  0  0
 10 11  1  0  0  0  0
 10 25  1  0  0  0  0
 10 26  1  0  0  0  0
 11 12  1  0  0  0  0
 11 13  1  0  0  0  0
 11 27  1  0  0  0  0
 12 28  1  0  0  0  0
 13 14  1  0  0  0  0
 13 15  1  0  0  0  0
 13 16  1  0  0  0  0
 17 18  1  0  0  0  0
 17 19  1  0  0  0  0
 18 29  1  0  0  0  0
 18 30  1  0  0  0  0
 18 31  1  0  0  0  0
 19 20  2  0  0  0  0
M  END
> <s_m_source_file>
AV-unprocessed.smi

> <i_m_source_file_index>
2777

> <i_lp_mmshare_version>
43012

> <i_f3d_flags>
0

> <s_epik_input>
Tz1jMW4oW0NIM10pYyg9TyluKFtDSDNdKWMoYzEyKW5bY0hdbjJbQ0gyXVtDQEhdKFtPSF0pQyhGKShGKUY=

> <s_epik_cmdline>
J2VwaWtfcHl0aG9uJywgJy1waCcsICc3LjAnLCAnLXRuJywgJzgnLCAnLW1hJywgJzIwMCcsICctbWV0YWxfYmluZGluZycsICctaW1hZScsICc8aW5maWxlLm1hZT4nLCAnLW9tYWUnLCAnPG91dGZpbGUubWFlPic=

> <r_epik_Ionization_Penalty>
0.000551612

> <r_epik_Ionization_Penalty_Charging>
2.619e-09

> <r_epik_Ionization_Penalty_Neutral>
0.00055161

> <r_epik_State_Penalty>
0.000345115

> <r_epik_Charging_Adjusted_Penalty>
0.000345118

> <i_epik_Tot_Q>
0

> <i_epik_Tot_abs_Q>
0

> <r_epik_Metal_State_Penalty>
-0

> <b_epik_Metal_Only>
0

> <s_lp_Force_Field>
OPLS_2005

> <r_lp_Energy>
33.5503

> <b_lp_Chiralities_Consistent>
1

> <s_lp_Variant>
AV-unprocessed.smi:2777-1

> <Gold.Version>
5.8.1

> <Gold.Id.Protein>
6NUR|6NUR_protein|mol2

> <Gold.PLP.Fitness>
47.2111

> <Gold.PLP.PLP>
-41.8656

> <Gold.PLP.part.hbond>
-2.0000

> <Gold.PLP.part.metal>
0.0000

> <Gold.PLP.part.buried>
-3.5359

> <Gold.PLP.part.nonpolar>
-34.9875

> <Gold.PLP.part.repulsive>
0.0784

> <Gold.PLP.ligand.clash>
0.0000

> <Gold.PLP.ligand.torsion>
0.3325

> <Gold.PLP.Chemscore.Hbond>
1.0000

> <Gold.PLP.Chemscore.CHOScore>
1.0000

> <Gold.PLP.Chemscore.Metal>
0.0000

> <Gold.Chemscore.Hbonds>
donor molecule, donor type, donor heavy atom, donor atom, acceptor molecule, acceptor atom, score
      P1  H  7997  8008       L1     4  1.00
      L1  C     8    24       P1  8028  1.00

> <Gold.PLP.Chemscore.Internal.Correction>
0.0106

> <Gold.Rescore>
     Score         DG    S(hbond)    S(metal)    S(lipo)     H(rot)  DE(clash)    DE(int)     intcor
      8.11      -8.42       0.96        0.00      45.65       2.20       0.03       0.28       ----

> <Gold.Chemscore.Fitness>
8.1093

> <Gold.Chemscore.DG>
-8.4190

> <Gold.Chemscore.ZeroCoef>
-5.4800

> <Gold.Chemscore.Hbond>
0.9646

> <Gold.Chemscore.Metal>
0.0000

> <Gold.Chemscore.Lipo>
45.6509

> <Gold.Chemscore.Internal_Hbond>
0.0000

> <Gold.Chemscore.DEClash>
0.0327

> <Gold.Chemscore.DEInternal>
0.2771

> <Gold.Chemscore.Rot>
2.1969

> <Gold.Chemscore.Internal.Correction>
   9.000000E+99

> <Gold.Chemscore.Hbonds>
donor molecule, donor type, donor heavy atom, donor atom, acceptor molecule, acceptor atom, score
      P1  H  7997  8008       L1     4  0.89

> <Gold.Chemscore.Hbond.Weighted>
-3.2218

> <Gold.Chemscore.Metal.Weighted>
-0.0000

> <Gold.Chemscore.Lipo.Weighted>
-5.3412

> <Gold.Chemscore.Internal_Hbond.Weighted>
0.0000

> <Gold.Chemscore.DEClash.Weighted>
0.0327

> <Gold.Chemscore.DEInternal.Weighted>
0.2771

> <Gold.Chemscore.Rot.Weighted>
5.6239

> <Gold.Chemscore.Internal.Correction.Weighted>
   9.000000E+99

> <Gold.Protein.RotatedTorsions>
[ 6907 6896 6895 6894 ] final  166.97 input  -60.11 | X-H torsion
[ 7974 7965 7964 7962 ] final   -1.02 input  175.53 | X-H torsion
[ 8008 7997 7996 7995 ] final  -88.70 input   59.86 | X-H torsion
[ 10167 10162 10161 10158 ] final  -90.64 input  -65.29 | X-H torsion
[ 10718 10713 10712 10709 ] final  -45.91 input   66.30 | X-H torsion
[ 10763 10752 10751 10750 ] final  165.91 input  -60.55 | X-H torsion
[ 11005 11000 10999 10996 ] final  -40.09 input  -57.11 | X-H torsion

> <Gold.Protein.ActiveResidues>
 VAL166  LYS551  ARG553  GLY616  TRP617  ASP618  TYR619  PRO620  LYS621  CYS622 
 ASP623  PHE694  ASN695  SER759  ASP760  ASP761  ALA762  ILE779  LEU786  VAL792 
 PHE793  MET794  SER795  GLU796  ALA797  LYS798  CYS799  TRP800  GLU811  SER814 

> <Gold.Protein.RotatedAtoms>
  151.8706  133.3475  159.3733 H   0  0  0  0  0  0  0  0  0  0  0  0  # atno 6907 bound_to 6896
  150.7154  134.5117  159.5620 H   0  0  0  0  0  0  0  0  0  0  0  0  # atno 6908 bound_to 6896
  152.2649  134.7996  160.0475 H   0  0  0  0  0  0  0  0  0  0  0  0  # atno 6909 bound_to 6896
  146.2421  140.1357  142.8336 H   0  0  0  0  0  0  0  0  0  0  0  0  # atno 7974 bound_to 7965
  154.6779  140.0550  157.0235 H   0  0  0  0  0  0  0  0  0  0  0  0  # atno 8008 bound_to 7997
  155.0994  140.3227  155.4532 H   0  0  0  0  0  0  0  0  0  0  0  0  # atno 8009 bound_to 7997
  156.2683  140.2034  156.6120 H   0  0  0  0  0  0  0  0  0  0  0  0  # atno 8010 bound_to 7997
  140.3528  143.2882  151.9706 H   0  0  0  0  0  0  0  0  0  0  0  0  # atno 10167 bound_to 10162
  156.2235  130.4168  149.8963 H   0  0  0  0  0  0  0  0  0  0  0  0  # atno 10718 bound_to 10713
  154.3310  135.2755  155.2471 H   0  0  0  0  0  0  0  0  0  0  0  0  # atno 10763 bound_to 10752
  154.4783  135.5865  153.6375 H   0  0  0  0  0  0  0  0  0  0  0  0  # atno 10764 bound_to 10752
  152.9866  135.6105  154.3503 H   0  0  0  0  0  0  0  0  0  0  0  0  # atno 10765 bound_to 10752
  141.0150  133.6890  156.2275 H   0  0  0  0  0  0  0  0  0  0  0  0  # atno 11005 bound_to 11000
  145.0289  140.8854  143.5122 LP  0  0  0  0  0  0  0  0  0  0  0  0  # atno 17320 bound_to 7965
  145.1418  139.2568  143.5486 LP  0  0  0  0  0  0  0  0  0  0  0  0  # atno 17321 bound_to 7965
  139.4824  144.6061  151.7519 LP  0  0  0  0  0  0  0  0  0  0  0  0  # atno 17342 bound_to 10162
  140.5202  144.0891  150.6020 LP  0  0  0  0  0  0  0  0  0  0  0  0  # atno 17343 bound_to 10162
  156.6601  130.8778  151.3546 LP  0  0  0  0  0  0  0  0  0  0  0  0  # atno 17370 bound_to 10713
  157.7099  130.9428  150.1055 LP  0  0  0  0  0  0  0  0  0  0  0  0  # atno 17371 bound_to 10713
  140.6670  134.4907  157.5586 LP  0  0  0  0  0  0  0  0  0  0  0  0  # atno 17394 bound_to 11000
  139.9111  134.8342  156.1524 LP  0  0  0  0  0  0  0  0  0  0  0  0  # atno 17395 bound_to 11000

$$$$
