AV-unprocessed.smi:2711|AV-procd|sdf|10472|dock10
  -GOLD-   2272014513D 1   1.00000     0.00000
 Structure written by MMmdl.
 34 35  0  0  0  0  0  0  0  0  1 V2000
  150.4885  142.3788  157.7069 C   0  0  0  0  0  0  0  0  0  0  0  0
  150.4248  141.4027  156.5813 C   0  0  0  0  0  0  0  0  0  0  0  0
  151.4663  140.7128  156.0092 C   0  0  0  0  0  0  0  0  0  0  0  0
  151.0805  139.8679  154.9661 N   0  0  0  0  0  0  0  0  0  0  0  0
  149.7620  139.9117  154.7474 C   0  0  0  0  0  0  0  0  0  0  0  0
  149.0894  139.1585  153.7493 N   0  0  0  0  0  0  0  0  0  0  0  0
  147.7934  139.2168  153.3964 C   0  0  0  0  0  0  0  0  0  0  0  0
  146.9499  139.9576  153.9026 O   0  0  0  0  0  0  0  0  0  0  0  0
  147.5205  138.3563  152.4041 N   0  0  0  0  0  0  0  0  0  0  0  0
  146.2126  138.1903  151.7719 C   0  0  0  0  0  0  0  0  0  0  0  0
  145.2329  137.3435  152.6060 C   0  0  0  0  0  0  0  0  0  0  0  0
  144.8584  137.7449  153.7095 O   0  0  0  0  0  0  0  0  0  0  0  0
  144.7978  136.1772  152.0854 N   0  0  0  0  0  0  0  0  0  0  0  0
  143.8708  135.2458  152.7285 C   0  0  0  0  0  0  0  0  0  0  0  0
  143.5494  134.1848  151.6749 C   0  0  0  0  0  0  0  0  0  0  0  0
  144.7470  134.2135  150.7357 C   0  0  0  0  0  0  0  0  0  0  0  0
  145.2255  135.6644  150.7851 C   0  0  0  0  0  0  0  0  0  0  0  0
  148.9045  141.0066  155.8205 S   0  0  0  0  0  0  0  0  0  0  0  0
  151.5150  142.6959  157.8933 H   0  0  0  0  0  0  0  0  0  0  0  0
  150.1003  141.9360  158.6242 H   0  0  0  0  0  0  0  0  0  0  0  0
  149.8981  143.2677  157.4842 H   0  0  0  0  0  0  0  0  0  0  0  0
  152.5105  140.7626  156.2804 H   0  0  0  0  0  0  0  0  0  0  0  0
  149.6641  138.5036  153.2401 H   0  0  0  0  0  0  0  0  0  0  0  0
  148.2738  137.7897  152.0434 H   0  0  0  0  0  0  0  0  0  0  0  0
  145.7820  139.1806  151.6232 H   0  0  0  0  0  0  0  0  0  0  0  0
  146.3405  137.7488  150.7823 H   0  0  0  0  0  0  0  0  0  0  0  0
  144.3606  134.7912  153.5906 H   0  0  0  0  0  0  0  0  0  0  0  0
  142.9592  135.7363  153.0718 H   0  0  0  0  0  0  0  0  0  0  0  0
  143.3740  133.1990  152.1066 H   0  0  0  0  0  0  0  0  0  0  0  0
  142.6510  134.4741  151.1280 H   0  0  0  0  0  0  0  0  0  0  0  0
  145.5287  133.5581  151.1224 H   0  0  0  0  0  0  0  0  0  0  0  0
  144.5025  133.8823  149.7259 H   0  0  0  0  0  0  0  0  0  0  0  0
  144.7494  136.2531  149.9997 H   0  0  0  0  0  0  0  0  0  0  0  0
  146.3064  135.7291  150.6496 H   0  0  0  0  0  0  0  0  0  0  0  0
  1  2  1  0  0  0  0
  1 19  1  0  0  0  0
  1 20  1  0  0  0  0
  1 21  1  0  0  0  0
  2 18  1  0  0  0  0
  2  3  2  0  0  0  0
  3  4  1  0  0  0  0
  3 22  1  0  0  0  0
  4  5  2  0  0  0  0
  5  6  1  0  0  0  0
  5 18  1  0  0  0  0
  6  7  1  0  0  0  0
  6 23  1  0  0  0  0
  7  8  2  0  0  0  0
  7  9  1  0  0  0  0
  9 10  1  0  0  0  0
  9 24  1  0  0  0  0
 10 11  1  0  0  0  0
 10 25  1  0  0  0  0
 10 26  1  0  0  0  0
 11 12  2  0  0  0  0
 11 13  1  0  0  0  0
 13 17  1  0  0  0  0
 13 14  1  0  0  0  0
 14 15  1  0  0  0  0
 14 27  1  0  0  0  0
 14 28  1  0  0  0  0
 15 16  1  0  0  0  0
 15 29  1  0  0  0  0
 15 30  1  0  0  0  0
 16 17  1  0  0  0  0
 16 31  1  0  0  0  0
 16 32  1  0  0  0  0
 17 33  1  0  0  0  0
 17 34  1  0  0  0  0
M  END
> <s_m_source_file>
AV-unprocessed.smi

> <i_m_source_file_index>
2711

> <i_lp_mmshare_version>
43012

> <i_f3d_flags>
0

> <s_epik_input>
W0NIM11jMVtjSF1uYyhzMSlbTkhdQyg9TylbTkhdW0NIMl1DKD1PKU4yW0NIMl1bQ0gyXVtDSDJdW0NIMl0y

> <s_epik_cmdline>
J2VwaWtfcHl0aG9uJywgJy1waCcsICc3LjAnLCAnLXRuJywgJzgnLCAnLW1hJywgJzIwMCcsICctbWV0YWxfYmluZGluZycsICctaW1hZScsICc8aW5maWxlLm1hZT4nLCAnLW9tYWUnLCAnPG91dGZpbGUubWFlPic=

> <r_lp_tautomer_probability>
1

> <r_epik_Ionization_Penalty>
0.000145478

> <r_epik_Ionization_Penalty_Charging>
0

> <r_epik_Ionization_Penalty_Neutral>
0.000145478

> <r_epik_State_Penalty>
-0

> <r_epik_Charging_Adjusted_Penalty>
0

> <i_epik_Tot_Q>
0

> <i_epik_Tot_abs_Q>
0

> <r_epik_Metal_State_Penalty>
0.0331427

> <b_epik_Metal_Only>
0

> <s_lp_Force_Field>
OPLS_2005

> <r_lp_Energy>
22.8553

> <b_lp_Chiralities_Consistent>
1

> <s_lp_Variant>
AV-unprocessed.smi:2711-1

> <Gold.Version>
5.8.1

> <Gold.Id.Protein>
6NUR|6NUR_protein|mol2

> <Gold.PLP.Fitness>
38.3974

> <Gold.PLP.PLP>
-32.7177

> <Gold.PLP.part.hbond>
-4.0000

> <Gold.PLP.part.metal>
0.0000

> <Gold.PLP.part.buried>
-2.8654

> <Gold.PLP.part.nonpolar>
-27.1888

> <Gold.PLP.part.repulsive>
0.5360

> <Gold.PLP.ligand.clash>
0.0000

> <Gold.PLP.ligand.torsion>
0.1488

> <Gold.PLP.Chemscore.Hbond>
1.9920

> <Gold.PLP.Chemscore.CHOScore>
0.0000

> <Gold.PLP.Chemscore.Metal>
0.0000

> <Gold.Chemscore.Hbonds>
donor molecule, donor type, donor heavy atom, donor atom, acceptor molecule, acceptor atom, score
      L1  H     9    24       P1  7948  0.99
      P1  H  7989  7998       L1     4  0.95

> <Gold.PLP.Chemscore.Internal.Correction>
0.0014

> <Gold.Rescore>
     Score         DG    S(hbond)    S(metal)    S(lipo)     H(rot)  DE(clash)    DE(int)     intcor
     12.75     -13.97       1.80        0.00      50.07       1.32       0.00       1.21       ----

> <Gold.Chemscore.Fitness>
12.7525

> <Gold.Chemscore.DG>
-13.9668

> <Gold.Chemscore.ZeroCoef>
-5.4800

> <Gold.Chemscore.Hbond>
1.8001

> <Gold.Chemscore.Metal>
0.0000

> <Gold.Chemscore.Lipo>
50.0734

> <Gold.Chemscore.Internal_Hbond>
0.0000

> <Gold.Chemscore.DEClash>
0.0000

> <Gold.Chemscore.DEInternal>
1.2143

> <Gold.Chemscore.Rot>
1.3219

> <Gold.Chemscore.Internal.Correction>
   9.000000E+99

> <Gold.Chemscore.Hbonds>
donor molecule, donor type, donor heavy atom, donor atom, acceptor molecule, acceptor atom, score
      L1  H     9    24       P1  7948  0.94
      P1  H  7989  7998       L1     4  0.06

> <Gold.Chemscore.Hbond.Weighted>
-6.0124

> <Gold.Chemscore.Metal.Weighted>
-0.0000

> <Gold.Chemscore.Lipo.Weighted>
-5.8586

> <Gold.Chemscore.Internal_Hbond.Weighted>
0.0000

> <Gold.Chemscore.DEClash.Weighted>
0.0000

> <Gold.Chemscore.DEInternal.Weighted>
1.2143

> <Gold.Chemscore.Rot.Weighted>
3.3841

> <Gold.Chemscore.Internal.Correction.Weighted>
   9.000000E+99

> <Gold.Protein.RotatedTorsions>
[ 6907 6896 6895 6894 ] final  -40.15 input  -60.11 | X-H torsion
[ 7974 7965 7964 7962 ] final  -24.17 input  175.53 | X-H torsion
[ 8008 7997 7996 7995 ] final   72.71 input   59.86 | X-H torsion
[ 10167 10162 10161 10158 ] final    4.09 input  -65.29 | X-H torsion
[ 10718 10713 10712 10709 ] final   90.49 input   66.30 | X-H torsion
[ 10763 10752 10751 10750 ] final   -4.14 input  -60.55 | X-H torsion
[ 11005 11000 10999 10996 ] final  178.06 input  -57.11 | X-H torsion

> <Gold.Protein.ActiveResidues>
 VAL166  LYS551  ARG553  GLY616  TRP617  ASP618  TYR619  PRO620  LYS621  CYS622 
 ASP623  PHE694  ASN695  SER759  ASP760  ASP761  ALA762  ILE779  LEU786  VAL792 
 PHE793  MET794  SER795  GLU796  ALA797  LYS798  CYS799  TRP800  GLU811  SER814 

> <Gold.Protein.RotatedAtoms>
  150.9818  134.9171  159.7848 H   0  0  0  0  0  0  0  0  0  0  0  0  # atno 6907 bound_to 6896
  152.5224  134.3400  159.9223 H   0  0  0  0  0  0  0  0  0  0  0  0  # atno 6908 bound_to 6896
  151.3407  133.3922  159.2705 H   0  0  0  0  0  0  0  0  0  0  0  0  # atno 6909 bound_to 6896
  146.1571  140.4716  142.8587 H   0  0  0  0  0  0  0  0  0  0  0  0  # atno 7974 bound_to 7965
  155.7729  140.3484  155.5256 H   0  0  0  0  0  0  0  0  0  0  0  0  # atno 8008 bound_to 7997
  155.8804  140.1001  157.1510 H   0  0  0  0  0  0  0  0  0  0  0  0  # atno 8009 bound_to 7997
  154.4024  140.1323  156.4176 H   0  0  0  0  0  0  0  0  0  0  0  0  # atno 8010 bound_to 7997
  140.6552  143.7444  150.7642 H   0  0  0  0  0  0  0  0  0  0  0  0  # atno 10167 bound_to 10162
  157.6959  131.0372  150.3585 H   0  0  0  0  0  0  0  0  0  0  0  0  # atno 10718 bound_to 10713
  153.3808  135.6998  153.6567 H   0  0  0  0  0  0  0  0  0  0  0  0  # atno 10763 bound_to 10752
  153.5179  135.3618  155.2618 H   0  0  0  0  0  0  0  0  0  0  0  0  # atno 10764 bound_to 10752
  154.8692  135.4150  154.3106 H   0  0  0  0  0  0  0  0  0  0  0  0  # atno 10765 bound_to 10752
  140.3910  134.6862  157.4507 H   0  0  0  0  0  0  0  0  0  0  0  0  # atno 11005 bound_to 11000
  144.7977  140.6155  143.6499 LP  0  0  0  0  0  0  0  0  0  0  0  0  # atno 17320 bound_to 7965
  145.4681  139.1506  143.3829 LP  0  0  0  0  0  0  0  0  0  0  0  0  # atno 17321 bound_to 7965
  140.1102  143.4706  152.2374 LP  0  0  0  0  0  0  0  0  0  0  0  0  # atno 17342 bound_to 10162
  139.5774  144.7494  151.3729 LP  0  0  0  0  0  0  0  0  0  0  0  0  # atno 17343 bound_to 10162
  156.4024  130.3918  149.6950 LP  0  0  0  0  0  0  0  0  0  0  0  0  # atno 17370 bound_to 10713
  156.4262  130.7793  151.2811 LP  0  0  0  0  0  0  0  0  0  0  0  0  # atno 17371 bound_to 10713
  140.0407  134.6272  155.8985 LP  0  0  0  0  0  0  0  0  0  0  0  0  # atno 17394 bound_to 11000
  141.1891  133.6564  156.5352 LP  0  0  0  0  0  0  0  0  0  0  0  0  # atno 17395 bound_to 11000

$$$$
