AV-unprocessed.smi:671|AV-procd|sdf|3287|dock2
  -GOLD-   22720 0243D 1   1.00000     0.00000
 Structure written by MMmdl.
 50 51  0  0  0  0  0  0  0  0  2 V2000
  148.1099  141.3227  153.8329 C   0  0  0  0  0  0  0  0  0  0  0  0
  149.2565  141.2823  154.7868 C   0  0  0  0  0  0  0  0  0  0  0  0
  149.5875  142.2900  155.6375 N   0  3  0  0  0  0  0  0  0  0  0  0
  150.6615  141.9483  156.3637 N   0  0  0  0  0  0  0  0  0  0  0  0
  151.1851  142.8974  157.3464 C   0  0  0  0  0  0  0  0  0  0  0  0
  151.0882  140.7004  156.0179 C   0  0  0  0  0  0  0  0  0  0  0  0
  152.2633  140.0133  156.6345 C   0  0  0  0  0  0  0  0  0  0  0  0
  150.1981  140.2743  155.0223 C   0  0  0  0  0  0  0  0  0  0  0  0
  150.2270  138.9547  154.3042 C   0  0  0  0  0  0  0  0  0  0  0  0
  150.0086  137.7499  155.2456 C   0  0  2  0  0  0  0  0  0  0  0  0
  151.3161  137.2516  155.8802 C   0  0  0  0  0  0  0  0  0  0  0  0
  149.3881  136.6445  154.5117 N   0  0  0  0  0  0  0  0  0  0  0  0
  148.8810  135.4994  155.0050 C   0  0  0  0  0  0  0  0  0  0  0  0
  148.8892  135.2529  156.2091 O   0  0  0  0  0  0  0  0  0  0  0  0
  148.3736  134.6672  154.0798 N   0  0  0  0  0  0  0  0  0  0  0  0
  147.7854  133.3577  154.3444 C   0  0  1  0  0  0  0  0  0  0  0  0
  146.2817  133.3666  154.0071 C   0  0  0  0  0  0  0  0  0  0  0  0
  146.1060  132.4429  152.8010 C   0  0  0  0  0  0  0  0  0  0  0  0
  147.2450  131.4376  152.9303 C   0  0  0  0  0  0  0  0  0  0  0  0
  148.4213  132.2680  153.4523 C   0  0  2  0  0  0  0  0  0  0  0  0
  149.4915  131.4287  154.1642 C   0  0  0  0  0  0  0  0  0  0  0  0
  147.4057  140.5214  154.0571 H   0  0  0  0  0  0  0  0  0  0  0  0
  148.4663  141.1949  152.8105 H   0  0  0  0  0  0  0  0  0  0  0  0
  147.5838  142.2755  153.9008 H   0  0  0  0  0  0  0  0  0  0  0  0
  151.5306  142.3524  158.2252 H   0  0  0  0  0  0  0  0  0  0  0  0
  150.4036  143.5983  157.6433 H   0  0  0  0  0  0  0  0  0  0  0  0
  152.0190  143.4431  156.9041 H   0  0  0  0  0  0  0  0  0  0  0  0
  152.5392  139.1233  156.0704 H   0  0  0  0  0  0  0  0  0  0  0  0
  152.0271  139.7146  157.6559 H   0  0  0  0  0  0  0  0  0  0  0  0
  153.1227  140.6836  156.6582 H   0  0  0  0  0  0  0  0  0  0  0  0
  149.4542  138.9612  153.5348 H   0  0  0  0  0  0  0  0  0  0  0  0
  151.1617  138.8303  153.7573 H   0  0  0  0  0  0  0  0  0  0  0  0
  149.3469  138.0460  156.0614 H   0  0  0  0  0  0  0  0  0  0  0  0
  151.7749  138.0200  156.5022 H   0  0  0  0  0  0  0  0  0  0  0  0
  152.0419  136.9597  155.1204 H   0  0  0  0  0  0  0  0  0  0  0  0
  151.1364  136.3854  156.5181 H   0  0  0  0  0  0  0  0  0  0  0  0
  149.3108  136.7721  153.5127 H   0  0  0  0  0  0  0  0  0  0  0  0
  148.4061  134.9606  153.1147 H   0  0  0  0  0  0  0  0  0  0  0  0
  147.8948  133.1023  155.4005 H   0  0  0  0  0  0  0  0  0  0  0  0
  145.7234  132.9638  154.8531 H   0  0  0  0  0  0  0  0  0  0  0  0
  145.8865  134.3647  153.8124 H   0  0  0  0  0  0  0  0  0  0  0  0
  145.1252  131.9671  152.7768 H   0  0  0  0  0  0  0  0  0  0  0  0
  146.2223  133.0121  151.8785 H   0  0  0  0  0  0  0  0  0  0  0  0
  146.9719  130.6715  153.6577 H   0  0  0  0  0  0  0  0  0  0  0  0
  147.4707  130.9368  151.9884 H   0  0  0  0  0  0  0  0  0  0  0  0
  148.8832  132.7459  152.5860 H   0  0  0  0  0  0  0  0  0  0  0  0
  149.0809  130.9180  155.0359 H   0  0  0  0  0  0  0  0  0  0  0  0
  150.3173  132.0545  154.5034 H   0  0  0  0  0  0  0  0  0  0  0  0
  149.9024  130.6712  153.4968 H   0  0  0  0  0  0  0  0  0  0  0  0
  149.1373  143.1884  155.7594 H   0  0  0  0  0  0  0  0  0  0  0  0
  1  2  1  0  0  0  0
  1 22  1  0  0  0  0
  1 23  1  0  0  0  0
  1 24  1  0  0  0  0
  2  8  1  0  0  0  0
  2  3  2  0  0  0  0
  3  4  1  0  0  0  0
  3 50  1  0  0  0  0
  4  5  1  0  0  0  0
  4  6  1  0  0  0  0
  5 25  1  0  0  0  0
  5 26  1  0  0  0  0
  5 27  1  0  0  0  0
  6  7  1  0  0  0  0
  6  8  2  0  0  0  0
  7 28  1  0  0  0  0
  7 29  1  0  0  0  0
  7 30  1  0  0  0  0
  8  9  1  0  0  0  0
  9 10  1  0  0  0  0
  9 31  1  0  0  0  0
  9 32  1  0  0  0  0
 10 11  1  0  0  0  0
 10 12  1  0  0  0  0
 10 33  1  0  0  0  0
 11 34  1  0  0  0  0
 11 35  1  0  0  0  0
 11 36  1  0  0  0  0
 12 13  1  0  0  0  0
 12 37  1  0  0  0  0
 13 14  2  0  0  0  0
 13 15  1  0  0  0  0
 15 16  1  0  0  0  0
 15 38  1  0  0  0  0
 16 20  1  0  0  0  0
 16 17  1  0  0  0  0
 16 39  1  0  0  0  0
 17 18  1  0  0  0  0
 17 40  1  0  0  0  0
 17 41  1  0  0  0  0
 18 19  1  0  0  0  0
 18 42  1  0  0  0  0
 18 43  1  0  0  0  0
 19 20  1  0  0  0  0
 19 44  1  0  0  0  0
 19 45  1  0  0  0  0
 20 21  1  0  0  0  0
 20 46  1  0  0  0  0
 21 47  1  0  0  0  0
 21 48  1  0  0  0  0
 21 49  1  0  0  0  0
M  CHG  1   3   1
M  END
> <s_m_source_file>
AV-unprocessed.smi

> <i_m_source_file_index>
671

> <i_lp_mmshare_version>
43012

> <i_f3d_flags>
0

> <s_epik_input>
W0NIM11jMW5uKFtDSDNdKWMoW0NIM10pYzFbQ0gyXVtDQEhdKFtDSDNdKVtOSF1DKD1PKVtOSF1bQ0BASF0yW0NIMl1bQ0gyXVtDSDJdW0NASF0yW0NIM10=

> <s_epik_cmdline>
J2VwaWtfcHl0aG9uJywgJy1waCcsICc3LjAnLCAnLXRuJywgJzgnLCAnLW1hJywgJzIwMCcsICctbWV0YWxfYmluZGluZycsICctaW1hZScsICc8aW5maWxlLm1hZT4nLCAnLW9tYWUnLCAnPG91dGZpbGUubWFlPic=

> <r_lp_tautomer_probability>
1

> <r_epik_Ionization_Penalty>
2.28705

> <r_epik_Ionization_Penalty_Charging>
2.28698

> <r_epik_Ionization_Penalty_Neutral>
6.23157e-05

> <r_epik_State_Penalty>
2.43671

> <r_epik_Charging_Adjusted_Penalty>
4.72369

> <i_epik_Tot_Q>
1

> <i_epik_Tot_abs_Q>
1

> <r_epik_Metal_State_Penalty>
2.44911

> <b_epik_Metal_Only>
0

> <s_lp_Force_Field>
OPLS_2005

> <r_lp_Energy>
34.681

> <b_lp_Chiralities_Consistent>
1

> <s_lp_Variant>
AV-unprocessed.smi:671-15

> <Gold.Version>
5.8.1

> <Gold.Id.Protein>
6NUR|6NUR_protein|mol2

> <Gold.PLP.Fitness>
48.1072

> <Gold.PLP.PLP>
-37.0446

> <Gold.PLP.part.hbond>
-2.9253

> <Gold.PLP.part.metal>
0.0000

> <Gold.PLP.part.buried>
-1.7508

> <Gold.PLP.part.nonpolar>
-32.4267

> <Gold.PLP.part.repulsive>
0.2063

> <Gold.PLP.ligand.clash>
0.0000

> <Gold.PLP.ligand.torsion>
0.4450

> <Gold.PLP.Chemscore.Hbond>
3.9760

> <Gold.PLP.Chemscore.CHOScore>
0.0000

> <Gold.PLP.Chemscore.Metal>
0.0000

> <Gold.Chemscore.Hbonds>
donor molecule, donor type, donor heavy atom, donor atom, acceptor molecule, acceptor atom, score
      L1  H     3    50       P1  8028  2.00
      L1  H    12    37       P1  7948  1.00
      L1  H    15    38       P1  7948  0.98

> <Gold.PLP.Chemscore.Internal.Correction>
0.0247

> <Gold.Rescore>
     Score         DG    S(hbond)    S(metal)    S(lipo)     H(rot)  DE(clash)    DE(int)     intcor
     20.82     -21.42       2.78        0.00      89.82       1.51       0.10       0.49       ----

> <Gold.Chemscore.Fitness>
20.8240

> <Gold.Chemscore.DG>
-21.4192

> <Gold.Chemscore.ZeroCoef>
-5.4800

> <Gold.Chemscore.Hbond>
2.7799

> <Gold.Chemscore.Metal>
0.0000

> <Gold.Chemscore.Lipo>
89.8223

> <Gold.Chemscore.Internal_Hbond>
0.0000

> <Gold.Chemscore.DEClash>
0.1036

> <Gold.Chemscore.DEInternal>
0.4916

> <Gold.Chemscore.Rot>
1.5057

> <Gold.Chemscore.Internal.Correction>
   9.000000E+99

> <Gold.Chemscore.Hbonds>
donor molecule, donor type, donor heavy atom, donor atom, acceptor molecule, acceptor atom, score
      L1  H     3    50       P1  8028  0.95
      L1  H    12    37       P1  7948  0.93
      L1  H    15    38       P1  7948  0.73

> <Gold.Chemscore.Hbond.Weighted>
-9.2847

> <Gold.Chemscore.Metal.Weighted>
-0.0000

> <Gold.Chemscore.Lipo.Weighted>
-10.5092

> <Gold.Chemscore.Internal_Hbond.Weighted>
0.0000

> <Gold.Chemscore.DEClash.Weighted>
0.1036

> <Gold.Chemscore.DEInternal.Weighted>
0.4916

> <Gold.Chemscore.Rot.Weighted>
3.8547

> <Gold.Chemscore.Internal.Correction.Weighted>
   9.000000E+99

> <Gold.Protein.RotatedTorsions>
[ 6907 6896 6895 6894 ] final   14.41 input  -60.11 | X-H torsion
[ 7974 7965 7964 7962 ] final  122.77 input  175.53 | X-H torsion
[ 8008 7997 7996 7995 ] final   75.92 input   59.86 | X-H torsion
[ 10167 10162 10161 10158 ] final  -19.44 input  -65.29 | X-H torsion
[ 10718 10713 10712 10709 ] final  114.39 input   66.30 | X-H torsion
[ 10763 10752 10751 10750 ] final  -92.74 input  -60.55 | X-H torsion
[ 11005 11000 10999 10996 ] final   -5.00 input  -57.11 | X-H torsion

> <Gold.Protein.ActiveResidues>
 VAL166  LYS551  ARG553  GLY616  TRP617  ASP618  TYR619  PRO620  LYS621  CYS622 
 ASP623  PHE694  ASN695  SER759  ASP760  ASP761  ALA762  ILE779  LEU786  VAL792 
 PHE793  MET794  SER795  GLU796  ALA797  LYS798  CYS799  TRP800  GLU811  SER814 

> <Gold.Protein.RotatedAtoms>
  151.8018  135.0706  160.0401 H   0  0  0  0  0  0  0  0  0  0  0  0  # atno 6907 bound_to 6896
  152.3083  133.5722  159.5672 H   0  0  0  0  0  0  0  0  0  0  0  0  # atno 6908 bound_to 6896
  150.7307  134.0106  159.3710 H   0  0  0  0  0  0  0  0  0  0  0  0  # atno 6909 bound_to 6896
  145.1037  139.3500  143.4799 H   0  0  0  0  0  0  0  0  0  0  0  0  # atno 7974 bound_to 7965
  155.8199  140.3470  155.5508 H   0  0  0  0  0  0  0  0  0  0  0  0  # atno 8008 bound_to 7997
  155.8353  140.0933  157.1788 H   0  0  0  0  0  0  0  0  0  0  0  0  # atno 8009 bound_to 7997
  154.4004  140.1404  156.3651 H   0  0  0  0  0  0  0  0  0  0  0  0  # atno 8010 bound_to 7997
  140.7268  143.4818  151.0107 H   0  0  0  0  0  0  0  0  0  0  0  0  # atno 10167 bound_to 10162
  157.6284  131.0998  150.7178 H   0  0  0  0  0  0  0  0  0  0  0  0  # atno 10718 bound_to 10713
  154.6891  135.5220  153.8367 H   0  0  0  0  0  0  0  0  0  0  0  0  # atno 10763 bound_to 10752
  153.0619  135.6571  154.0453 H   0  0  0  0  0  0  0  0  0  0  0  0  # atno 10764 bound_to 10752
  154.0329  135.2984  155.3345 H   0  0  0  0  0  0  0  0  0  0  0  0  # atno 10765 bound_to 10752
  140.6863  133.9109  155.8588 H   0  0  0  0  0  0  0  0  0  0  0  0  # atno 11005 bound_to 11000
  146.3529  140.0926  142.8612 LP  0  0  0  0  0  0  0  0  0  0  0  0  # atno 17320 bound_to 7965
  145.0926  140.9294  143.4760 LP  0  0  0  0  0  0  0  0  0  0  0  0  # atno 17321 bound_to 7965
  139.8517  143.7429  152.3177 LP  0  0  0  0  0  0  0  0  0  0  0  0  # atno 17342 bound_to 10162
  139.7614  144.7505  151.0358 LP  0  0  0  0  0  0  0  0  0  0  0  0  # atno 17343 bound_to 10162
  156.7522  130.4772  149.5454 LP  0  0  0  0  0  0  0  0  0  0  0  0  # atno 17370 bound_to 10713
  156.1471  130.6284  151.0546 LP  0  0  0  0  0  0  0  0  0  0  0  0  # atno 17371 bound_to 10713
  141.0277  134.0800  157.4050 LP  0  0  0  0  0  0  0  0  0  0  0  0  # atno 17394 bound_to 11000
  139.8936  135.0131  156.6910 LP  0  0  0  0  0  0  0  0  0  0  0  0  # atno 17395 bound_to 11000

$$$$
