AV-unprocessed.smi:1911|AV-procd|sdf|7745|dock1
  -GOLD-   22720 9483D 1   1.00000     0.00000
 Structure written by MMmdl.
 51 53  0  0  0  0  0  0  0  0  3 V2000
  142.9479  132.7579  150.9453 N   0  5  0  0  0  0  0  0  0  0  0  0
  144.2878  132.6101  150.9618 C   0  0  0  0  0  0  0  0  0  0  0  0
  144.9816  131.9293  150.2102 O   0  0  0  0  0  0  0  0  0  0  0  0
  144.9519  133.4195  152.0816 C   0  0  0  0  0  0  0  0  0  0  0  0
  144.8538  134.8786  151.8181 N   0  3  2  0  0  0  0  0  0  0  0  0
  145.8683  135.3423  150.8379 C   0  0  0  0  0  0  0  0  0  0  0  0
  145.6573  136.8226  150.4714 C   0  0  0  0  0  0  0  0  0  0  0  0
  145.6426  137.7305  151.7164 C   0  0  2  0  0  0  0  0  0  0  0  0
  146.9696  137.8411  152.3215 N   0  0  0  0  0  0  0  0  0  0  0  0
  147.3739  138.8291  153.1325 C   0  0  0  0  0  0  0  0  0  0  0  0
  146.6646  139.7853  153.4439 O   0  0  0  0  0  0  0  0  0  0  0  0
  148.6446  138.6416  153.5281 N   0  0  0  0  0  0  0  0  0  0  0  0
  149.4083  139.4176  154.4409 C   0  0  0  0  0  0  0  0  0  0  0  0
  150.5858  138.8537  154.9685 C   0  0  0  0  0  0  0  0  0  0  0  0
  151.3478  139.5896  155.8956 C   0  0  0  0  0  0  0  0  0  0  0  0
  150.9051  140.8776  156.2801 C   0  0  0  0  0  0  0  0  0  0  0  0
  151.6281  141.6489  157.2118 N   0  0  0  0  0  0  0  0  0  0  0  0
  151.3018  143.0375  157.4928 C   0  0  0  0  0  0  0  0  0  0  0  0
  152.2368  143.4335  158.6355 C   0  0  0  0  0  0  0  0  0  0  0  0
  152.4232  142.1255  159.4048 C   0  0  0  0  0  0  0  0  0  0  0  0
  152.3532  141.0435  158.3218 C   0  0  0  0  0  0  0  0  0  0  0  0
  149.7641  141.4135  155.7856 N   0  0  0  0  0  0  0  0  0  0  0  0
  149.0380  140.7055  154.8950 C   0  0  0  0  0  0  0  0  0  0  0  0
  144.6293  137.1899  152.7396 C   0  0  0  0  0  0  0  0  0  0  0  0
  144.8667  135.7025  153.0567 C   0  0  0  0  0  0  0  0  0  0  0  0
  142.5404  133.4779  150.3364 H   0  0  0  0  0  0  0  0  0  0  0  0
  144.5054  133.1777  153.0475 H   0  0  0  0  0  0  0  0  0  0  0  0
  145.9982  133.1144  152.1373 H   0  0  0  0  0  0  0  0  0  0  0  0
  146.8681  135.1904  151.2476 H   0  0  0  0  0  0  0  0  0  0  0  0
  145.8037  134.7394  149.9312 H   0  0  0  0  0  0  0  0  0  0  0  0
  146.4248  137.1476  149.7681 H   0  0  0  0  0  0  0  0  0  0  0  0
  144.7067  136.9244  149.9462 H   0  0  0  0  0  0  0  0  0  0  0  0
  145.3196  138.7300  151.4194 H   0  0  0  0  0  0  0  0  0  0  0  0
  147.6237  137.0992  152.1205 H   0  0  0  0  0  0  0  0  0  0  0  0
  149.1329  137.8651  153.1071 H   0  0  0  0  0  0  0  0  0  0  0  0
  150.9069  137.8673  154.6669 H   0  0  0  0  0  0  0  0  0  0  0  0
  152.2512  139.1558  156.2967 H   0  0  0  0  0  0  0  0  0  0  0  0
  151.4480  143.6731  156.6188 H   0  0  0  0  0  0  0  0  0  0  0  0
  150.2592  143.1083  157.8053 H   0  0  0  0  0  0  0  0  0  0  0  0
  153.1954  143.7618  158.2312 H   0  0  0  0  0  0  0  0  0  0  0  0
  151.8363  144.2389  159.2516 H   0  0  0  0  0  0  0  0  0  0  0  0
  153.3522  142.0941  159.9746 H   0  0  0  0  0  0  0  0  0  0  0  0
  151.5966  141.9943  160.1045 H   0  0  0  0  0  0  0  0  0  0  0  0
  151.8633  140.1452  158.6994 H   0  0  0  0  0  0  0  0  0  0  0  0
  153.3523  140.7707  157.9808 H   0  0  0  0  0  0  0  0  0  0  0  0
  148.1303  141.1884  154.5687 H   0  0  0  0  0  0  0  0  0  0  0  0
  144.6661  137.7798  153.6565 H   0  0  0  0  0  0  0  0  0  0  0  0
  143.6203  137.3109  152.3430 H   0  0  0  0  0  0  0  0  0  0  0  0
  144.0923  135.3619  153.7443 H   0  0  0  0  0  0  0  0  0  0  0  0
  145.8201  135.5717  153.5709 H   0  0  0  0  0  0  0  0  0  0  0  0
  143.9509  135.0105  151.3832 H   0  0  0  0  0  0  0  0  0  0  0  0
  1  2  1  0  0  0  0
  1 26  1  0  0  0  0
  2  3  2  0  0  0  0
  2  4  1  0  0  0  0
  4  5  1  0  0  0  0
  4 27  1  0  0  0  0
  4 28  1  0  0  0  0
  5 25  1  0  0  0  0
  5  6  1  0  0  0  0
  5 51  1  0  0  0  0
  6  7  1  0  0  0  0
  6 29  1  0  0  0  0
  6 30  1  0  0  0  0
  7  8  1  0  0  0  0
  7 31  1  0  0  0  0
  7 32  1  0  0  0  0
  8  9  1  0  0  0  0
  8 24  1  0  0  0  0
  8 33  1  0  0  0  0
  9 10  1  0  0  0  0
  9 34  1  0  0  0  0
 10 11  2  0  0  0  0
 10 12  1  0  0  0  0
 12 13  1  0  0  0  0
 12 35  1  0  0  0  0
 13 23  1  0  0  0  0
 13 14  2  0  0  0  0
 14 15  1  0  0  0  0
 14 36  1  0  0  0  0
 15 16  2  0  0  0  0
 15 37  1  0  0  0  0
 16 17  1  0  0  0  0
 16 22  1  0  0  0  0
 17 21  1  0  0  0  0
 17 18  1  0  0  0  0
 18 19  1  0  0  0  0
 18 38  1  0  0  0  0
 18 39  1  0  0  0  0
 19 20  1  0  0  0  0
 19 40  1  0  0  0  0
 19 41  1  0  0  0  0
 20 21  1  0  0  0  0
 20 42  1  0  0  0  0
 20 43  1  0  0  0  0
 21 44  1  0  0  0  0
 21 45  1  0  0  0  0
 22 23  2  0  0  0  0
 23 46  1  0  0  0  0
 24 25  1  0  0  0  0
 24 47  1  0  0  0  0
 24 48  1  0  0  0  0
 25 49  1  0  0  0  0
 25 50  1  0  0  0  0
M  CHG  1   1  -1
M  CHG  1   5   1
M  END
> <s_m_source_file>
AV-unprocessed.smi

> <i_m_source_file_index>
1911

> <i_lp_mmshare_version>
43012

> <i_f3d_flags>
0

> <s_epik_input>
W05IMl1DKD1PKVtDSDJdTjFbQ0gyXVtDSDJdW0NIXShbQ0gyXVtDSDJdMSlbTkhdQyg9TylbTkhdYzJbY0hdW2NIXWMobltjSF0yKU4zW0NIMl1bQ0gyXVtDSDJdW0NIMl0z

> <s_epik_cmdline>
J2VwaWtfcHl0aG9uJywgJy1waCcsICc3LjAnLCAnLXRuJywgJzgnLCAnLW1hJywgJzIwMCcsICctbWV0YWxfYmluZGluZycsICctaW1hZScsICc8aW5maWxlLm1hZT4nLCAnLW9tYWUnLCAnPG91dGZpbGUubWFlPic=

> <r_lp_tautomer_probability>
1

> <r_epik_Ionization_Penalty>
5.80652

> <r_epik_Ionization_Penalty_Charging>
5.7288

> <r_epik_Ionization_Penalty_Neutral>
0.0777157

> <r_epik_State_Penalty>
6.60246

> <r_epik_Charging_Adjusted_Penalty>
12.3313

> <i_epik_Tot_Q>
0

> <i_epik_Tot_abs_Q>
2

> <r_epik_Metal_State_Penalty>
2.64988

> <b_epik_Metal_Only>
1

> <s_lp_Force_Field>
OPLS_2005

> <r_lp_Energy>
33.5084

> <b_lp_Chiralities_Consistent>
1

> <s_lp_Variant>
AV-unprocessed.smi:1911-8

> <Gold.Version>
5.8.1

> <Gold.Id.Protein>
6NUR|6NUR_protein|mol2

> <Gold.PLP.Fitness>
48.8782

> <Gold.PLP.PLP>
-41.7147

> <Gold.PLP.part.hbond>
-4.0000

> <Gold.PLP.part.metal>
0.0000

> <Gold.PLP.part.buried>
-0.1745

> <Gold.PLP.part.nonpolar>
-38.1939

> <Gold.PLP.part.repulsive>
0.5496

> <Gold.PLP.ligand.clash>
0.0000

> <Gold.PLP.ligand.torsion>
0.9068

> <Gold.PLP.Chemscore.Hbond>
2.9120

> <Gold.PLP.Chemscore.CHOScore>
0.0000

> <Gold.PLP.Chemscore.Metal>
0.0000

> <Gold.Chemscore.Hbonds>
donor molecule, donor type, donor heavy atom, donor atom, acceptor molecule, acceptor atom, score
      L1  H     1    26       P1 10186  1.00
      L1  H     9    34       P1  7948  1.00
      L1  H    12    35       P1  7948  0.92

> <Gold.PLP.Chemscore.Internal.Correction>
0.2412

> <Gold.Rescore>
     Score         DG    S(hbond)    S(metal)    S(lipo)     H(rot)  DE(clash)    DE(int)     intcor
     16.73     -22.36       2.86        0.00     103.70       1.88       3.59       2.04       ----

> <Gold.Chemscore.Fitness>
16.7290

> <Gold.Chemscore.DG>
-22.3566

> <Gold.Chemscore.ZeroCoef>
-5.4800

> <Gold.Chemscore.Hbond>
2.8608

> <Gold.Chemscore.Metal>
0.0000

> <Gold.Chemscore.Lipo>
103.6970

> <Gold.Chemscore.Internal_Hbond>
0.0000

> <Gold.Chemscore.DEClash>
3.5865

> <Gold.Chemscore.DEInternal>
2.0410

> <Gold.Chemscore.Rot>
1.8793

> <Gold.Chemscore.Internal.Correction>
   9.000000E+99

> <Gold.Chemscore.Hbonds>
donor molecule, donor type, donor heavy atom, donor atom, acceptor molecule, acceptor atom, score
      L1  H     1    26       P1 10186  0.95
      L1  H     9    34       P1  7948  0.98
      L1  H    12    35       P1  7948  0.82

> <Gold.Chemscore.Hbond.Weighted>
-9.5549

> <Gold.Chemscore.Metal.Weighted>
-0.0000

> <Gold.Chemscore.Lipo.Weighted>
-12.1325

> <Gold.Chemscore.Internal_Hbond.Weighted>
0.0000

> <Gold.Chemscore.DEClash.Weighted>
3.5865

> <Gold.Chemscore.DEInternal.Weighted>
2.0410

> <Gold.Chemscore.Rot.Weighted>
4.8109

> <Gold.Chemscore.Internal.Correction.Weighted>
   9.000000E+99

> <Gold.Protein.RotatedTorsions>
[ 6907 6896 6895 6894 ] final  -21.40 input  -60.11 | X-H torsion
[ 7974 7965 7964 7962 ] final -109.79 input  175.53 | X-H torsion
[ 8008 7997 7996 7995 ] final  -93.68 input   59.86 | X-H torsion
[ 10167 10162 10161 10158 ] final  -82.26 input  -65.29 | X-H torsion
[ 10718 10713 10712 10709 ] final -178.39 input   66.30 | X-H torsion
[ 10763 10752 10751 10750 ] final  -92.86 input  -60.55 | X-H torsion
[ 11005 11000 10999 10996 ] final  -14.75 input  -57.11 | X-H torsion

> <Gold.Protein.ActiveResidues>
 VAL166  LYS551  ARG553  GLY616  TRP617  ASP618  TYR619  PRO620  LYS621  CYS622 
 ASP623  PHE694  ASN695  SER759  ASP760  ASP761  ALA762  ILE779  LEU786  VAL792 
 PHE793  MET794  SER795  GLU796  ALA797  LYS798  CYS799  TRP800  GLU811  SER814 

> <Gold.Protein.RotatedAtoms>
  151.2339  135.0564  159.8998 H   0  0  0  0  0  0  0  0  0  0  0  0  # atno 6907 bound_to 6896
  152.5401  134.0507  159.8119 H   0  0  0  0  0  0  0  0  0  0  0  0  # atno 6908 bound_to 6896
  151.0690  133.5433  159.2660 H   0  0  0  0  0  0  0  0  0  0  0  0  # atno 6909 bound_to 6896
  145.1762  140.8949  143.3506 H   0  0  0  0  0  0  0  0  0  0  0  0  # atno 7974 bound_to 7965
  154.7388  140.0496  157.0792 H   0  0  0  0  0  0  0  0  0  0  0  0  # atno 8008 bound_to 7997
  155.0206  140.3146  155.4776 H   0  0  0  0  0  0  0  0  0  0  0  0  # atno 8009 bound_to 7997
  156.2859  140.2168  156.5324 H   0  0  0  0  0  0  0  0  0  0  0  0  # atno 8010 bound_to 7997
  140.4336  143.2539  151.8725 H   0  0  0  0  0  0  0  0  0  0  0  0  # atno 10167 bound_to 10162
  156.8436  130.9694  151.3098 H   0  0  0  0  0  0  0  0  0  0  0  0  # atno 10718 bound_to 10713
  154.6903  135.5215  153.8383 H   0  0  0  0  0  0  0  0  0  0  0  0  # atno 10763 bound_to 10752
  153.0627  135.6574  154.0434 H   0  0  0  0  0  0  0  0  0  0  0  0  # atno 10764 bound_to 10752
  154.0309  135.2985  155.3348 H   0  0  0  0  0  0  0  0  0  0  0  0  # atno 10765 bound_to 10752
  140.7896  133.8299  155.9367 H   0  0  0  0  0  0  0  0  0  0  0  0  # atno 11005 bound_to 11000
  145.0182  139.3448  143.6085 LP  0  0  0  0  0  0  0  0  0  0  0  0  # atno 17320 bound_to 7965
  146.3461  139.9472  142.8733 LP  0  0  0  0  0  0  0  0  0  0  0  0  # atno 17321 bound_to 7965
  139.4786  144.5307  151.8670 LP  0  0  0  0  0  0  0  0  0  0  0  0  # atno 17342 bound_to 10162
  140.4399  144.2000  150.5891 LP  0  0  0  0  0  0  0  0  0  0  0  0  # atno 17343 bound_to 10162
  157.6342  130.8753  149.9329 LP  0  0  0  0  0  0  0  0  0  0  0  0  # atno 17370 bound_to 10713
  156.0867  130.3667  150.0474 LP  0  0  0  0  0  0  0  0  0  0  0  0  # atno 17371 bound_to 10713
  140.9403  134.1909  157.4802 LP  0  0  0  0  0  0  0  0  0  0  0  0  # atno 17394 bound_to 11000
  139.8733  134.9869  156.5344 LP  0  0  0  0  0  0  0  0  0  0  0  0  # atno 17395 bound_to 11000

$$$$
