#       Name:                AV-unprocessed.smi:1158
#       Creating user name   scv26
#       Creation time:       Fri Mar 27 03:49:06 2020


#       File generated by GOLD software.
#

@<TRIPOS>MOLECULE
AV-unprocessed.smi:1158
    48    49     1
SMALL
NO_CHARGES


@<TRIPOS>ATOM
      1 ****        -4.1454  -4.6740  -0.1329 C.3            1 S1                 0.0000
      2 ****        -3.5246  -3.3930  -0.1407 O.3            1 S1                 0.0000
      3 ****        -4.3285  -2.2701  -0.1949 C.ar           1 S1                 0.0000
      4 ****        -5.6740  -2.4418  -0.2315 N.ar           1 S1                 0.0000
      5 ****        -6.4603  -1.3476  -0.2899 C.ar           1 S1                 0.0000
      6 ****        -5.9532  -0.0360  -0.3226 C.ar           1 S1                 0.0000
      7 ****        -4.5583   0.1450  -0.2844 C.ar           1 S1                 0.0000
      8 ****        -3.7190  -0.9933  -0.2069 C.ar           1 S1                 0.0000
      9 ****        -2.2977  -0.9289  -0.1778 N.am           1 S1                 0.0000
     10 ****        -1.5080   0.0973   0.1817 C.2            1 S1                 0.0000
     11 ****        -1.8977   1.2040   0.5526 O.2            1 S1                 0.0000
     12 ****        -0.2123  -0.2386   0.1018 N.am           1 S1                 0.0000
     13 ****         0.9049   0.6362   0.4466 C.3            1 S1                 0.0000
     14 ****         1.2356   1.5913  -0.7133 C.3            1 S1                 0.0000
     15 ****         2.4705   2.4478  -0.3893 C.3            1 S1                 0.0000
     16 ****         3.6500   1.6017  -0.0678 N.4            1 S1                 1.0000
     17 ****         4.8806   2.4148   0.1186 C.3            1 S1                 0.0000
     18 ****         6.1764   1.6201  -0.1201 C.3            1 S1                 0.0000
     19 ****         7.1974   2.4668  -0.2455 F              1 S1                 0.0000
     20 ****         6.4421   0.7856   0.8838 F              1 S1                 0.0000
     21 ****         3.3661   0.6857   1.0695 C.3            1 S1                 0.0000
     22 ****         2.1456  -0.2056   0.7816 C.3            1 S1                 0.0000
     23 ****        -3.3770  -5.4459  -0.0960 H              1 S1                 0.0000
     24 ****        -4.7355  -4.8377  -1.0358 H              1 S1                 0.0000
     25 ****        -4.7850  -4.8025   0.7414 H              1 S1                 0.0000
     26 ****        -7.5256  -1.5231  -0.3174 H              1 S1                 0.0000
     27 ****        -6.6190   0.8124  -0.3799 H              1 S1                 0.0000
     28 ****        -4.1653   1.1483  -0.3299 H              1 S1                 0.0000
     29 ****        -1.8275  -1.7971  -0.3889 H              1 S1                 0.0000
     30 ****         0.0167  -1.1717  -0.2087 H              1 S1                 0.0000
     31 ****         0.6403   1.2224   1.3290 H              1 S1                 0.0000
     32 ****         1.4181   1.0207  -1.6253 H              1 S1                 0.0000
     33 ****         0.3856   2.2423  -0.9214 H              1 S1                 0.0000
     34 ****         2.6934   3.0841  -1.2466 H              1 S1                 0.0000
     35 ****         2.2580   3.1116   0.4505 H              1 S1                 0.0000
     36 ****         4.8664   3.2289  -0.6077 H              1 S1                 0.0000
     37 ****         4.8844   2.8870   1.1022 H              1 S1                 0.0000
     38 ****         6.1331   1.0364  -1.0403 H              1 S1                 0.0000
     39 ****         4.2213   0.0409   1.2622 H              1 S1                 0.0000
     40 ****         3.1990   1.2695   1.9761 H              1 S1                 0.0000
     41 ****         1.9435  -0.8413   1.6447 H              1 S1                 0.0000
     42 ****         2.3753  -0.8755  -0.0485 H              1 S1                 0.0000
     43 ****         3.8097   1.0234  -0.8803 H              1 S1                 0.0000
     44 ****        -2.9210  -3.3625  -0.9374 LP             1 S1                 0.0000
     45 ****        -2.9783  -3.3248   0.6942 LP             1 S1                 0.0000
     46 ****        -6.0734  -3.3585  -0.2155 LP             1 S1                 0.0000
     47 ****        -2.8774   1.3974   0.6051 LP             1 S1                 0.0000
     48 ****        -1.2347   1.9100   0.8016 LP             1 S1                 0.0000
@<TRIPOS>BOND
    1    1    2 1     
    2    1   23 1     
    3    1   24 1     
    4    1   25 1     
    5    2    3 1     
    6    3    8 ar    
    7    3    4 ar    
    8    4    5 ar    
    9    5    6 ar    
   10    5   26 1     
   11    6    7 ar    
   12    6   27 1     
   13    7    8 ar    
   14    7   28 1     
   15    8    9 1     
   16    9   10 am    
   17    9   29 1     
   18   10   11 2     
   19   10   12 am    
   20   12   13 1     
   21   12   30 1     
   22   13   22 1     
   23   13   14 1     
   24   13   31 1     
   25   14   15 1     
   26   14   32 1     
   27   14   33 1     
   28   15   16 1     
   29   15   34 1     
   30   15   35 1     
   31   16   17 1     
   32   16   21 1     
   33   16   43 1     
   34   17   18 1     
   35   17   36 1     
   36   17   37 1     
   37   18   19 1     
   38   18   20 1     
   39   18   38 1     
   40   21   22 1     
   41   21   39 1     
   42   21   40 1     
   43   22   41 1     
   44   22   42 1     
   45    2   44 1     
   46    2   45 1     
   47    4   46 1     
   48   11   47 1     
   49   11   48 1     
@<TRIPOS>SUBSTRUCTURE
      1 S1             1
@<TRIPOS>SET
LONE_PAIRS      STATIC     ATOMS    <user>   **** ""
5 44 45 46 47 48
DONOR_HYDROGENS      STATIC     ATOMS    <user>   **** ""
3 29 30 43
ATOM$BLUE        STATIC     ATOMS    COLORGROUP SYSTEM
5 44 45 46 47 48
ATOM$RED        STATIC     ATOMS    COLORGROUP SYSTEM
3 29 30 43
