AV-unprocessed.smi:2149|AV-procd|sdf|8754|dock3
  -GOLD-   2272011533D 1   1.00000     0.00000
 Structure written by MMmdl.
 43 44  0  0  0  0  0  0  0  0  2 V2000
  142.6415  140.5283  155.8608 C   0  0  0  0  0  0  0  0  0  0  0  0
  142.7977  141.8850  157.0929 S   0  0  0  0  0  0  0  0  0  0  0  0
  141.7019  142.8390  156.8647 O   0  0  0  0  0  0  0  0  0  0  0  0
  142.9732  141.2784  158.4218 O   0  0  0  0  0  0  0  0  0  0  0  0
  144.2877  142.6772  156.6677 N   0  0  0  0  0  0  0  0  0  0  0  0
  144.3362  143.6017  155.5160 C   0  0  0  0  0  0  0  0  0  0  0  0
  144.9862  142.9458  154.2833 C   0  0  0  0  0  0  0  0  0  0  0  0
  146.3574  142.3467  154.6224 C   0  0  0  0  0  0  0  0  0  0  0  0
  146.2047  141.3452  155.7793 C   0  0  1  0  0  0  0  0  0  0  0  0
  147.5427  140.7032  156.1651 C   0  0  0  0  0  0  0  0  0  0  0  0
  147.6616  139.4785  156.2032 O   0  0  0  0  0  0  0  0  0  0  0  0
  148.5563  141.5486  156.4052 N   0  0  0  0  0  0  0  0  0  0  0  0
  149.9453  141.1594  156.6290 C   0  0  0  0  0  0  0  0  0  0  0  0
  150.9391  142.3188  156.3979 C   0  0  0  0  0  0  0  0  0  0  0  0
  151.3302  143.0528  157.6707 C   0  0  0  0  0  0  0  0  0  0  0  0
  152.2324  142.5007  158.6065 C   0  0  0  0  0  0  0  0  0  0  0  0
  152.5856  143.2472  159.7496 C   0  0  0  0  0  0  0  0  0  0  0  0
  152.0225  144.5260  159.9379 C   0  0  0  0  0  0  0  0  0  0  0  0
  151.1185  145.0252  158.9779 C   0  0  0  0  0  0  0  0  0  0  0  0
  150.8086  144.2809  157.8931 N   0  3  0  0  0  0  0  0  0  0  0  0
  145.5773  142.0450  157.0037 C   0  0  0  0  0  0  0  0  0  0  0  0
  141.7082  139.9942  156.0375 H   0  0  0  0  0  0  0  0  0  0  0  0
  143.4710  139.8319  155.9660 H   0  0  0  0  0  0  0  0  0  0  0  0
  142.6251  140.9421  154.8539 H   0  0  0  0  0  0  0  0  0  0  0  0
  143.3357  143.9586  155.2731 H   0  0  0  0  0  0  0  0  0  0  0  0
  144.9137  144.4799  155.8069 H   0  0  0  0  0  0  0  0  0  0  0  0
  144.3352  142.1671  153.8872 H   0  0  0  0  0  0  0  0  0  0  0  0
  145.0927  143.6842  153.4882 H   0  0  0  0  0  0  0  0  0  0  0  0
  146.7751  141.8551  153.7426 H   0  0  0  0  0  0  0  0  0  0  0  0
  147.0486  143.1458  154.8950 H   0  0  0  0  0  0  0  0  0  0  0  0
  145.5369  140.5504  155.4474 H   0  0  0  0  0  0  0  0  0  0  0  0
  148.3624  142.5389  156.3675 H   0  0  0  0  0  0  0  0  0  0  0  0
  150.0166  140.8282  157.6651 H   0  0  0  0  0  0  0  0  0  0  0  0
  150.2073  140.2985  156.0121 H   0  0  0  0  0  0  0  0  0  0  0  0
  151.8386  141.9434  155.9083 H   0  0  0  0  0  0  0  0  0  0  0  0
  150.5010  143.0381  155.7048 H   0  0  0  0  0  0  0  0  0  0  0  0
  152.6629  141.5231  158.4434 H   0  0  0  0  0  0  0  0  0  0  0  0
  153.2833  142.8453  160.4698 H   0  0  0  0  0  0  0  0  0  0  0  0
  152.2816  145.1147  160.8060 H   0  0  0  0  0  0  0  0  0  0  0  0
  150.6412  145.9921  159.0424 H   0  0  0  0  0  0  0  0  0  0  0  0
  146.2477  142.8199  157.3791 H   0  0  0  0  0  0  0  0  0  0  0  0
  145.4416  141.3384  157.8211 H   0  0  0  0  0  0  0  0  0  0  0  0
  150.1579  144.6659  157.2081 H   0  0  0  0  0  0  0  0  0  0  0  0
  1  2  1  0  0  0  0
  1 22  1  0  0  0  0
  1 23  1  0  0  0  0
  1 24  1  0  0  0  0
  2  3  2  0  0  0  0
  2  4  2  0  0  0  0
  2  5  1  0  0  0  0
  5 21  1  0  0  0  0
  5  6  1  0  0  0  0
  6  7  1  0  0  0  0
  6 25  1  0  0  0  0
  6 26  1  0  0  0  0
  7  8  1  0  0  0  0
  7 27  1  0  0  0  0
  7 28  1  0  0  0  0
  8  9  1  0  0  0  0
  8 29  1  0  0  0  0
  8 30  1  0  0  0  0
  9 10  1  0  0  0  0
  9 21  1  0  0  0  0
  9 31  1  0  0  0  0
 10 11  2  0  0  0  0
 10 12  1  0  0  0  0
 12 13  1  0  0  0  0
 12 32  1  0  0  0  0
 13 14  1  0  0  0  0
 13 33  1  0  0  0  0
 13 34  1  0  0  0  0
 14 15  1  0  0  0  0
 14 35  1  0  0  0  0
 14 36  1  0  0  0  0
 15 20  1  0  0  0  0
 15 16  2  0  0  0  0
 16 17  1  0  0  0  0
 16 37  1  0  0  0  0
 17 18  2  0  0  0  0
 17 38  1  0  0  0  0
 18 19  1  0  0  0  0
 18 39  1  0  0  0  0
 19 20  2  0  0  0  0
 19 40  1  0  0  0  0
 20 43  1  0  0  0  0
 21 41  1  0  0  0  0
 21 42  1  0  0  0  0
M  CHG  1  20   1
M  END
> <s_m_source_file>
AV-unprocessed.smi

> <i_m_source_file_index>
2149

> <i_lp_mmshare_version>
43012

> <i_f3d_flags>
0

> <s_epik_input>
W0NIM11TKD1PKSg9TylOMVtDSDJdW0NIMl1bQ0gyXVtDQEhdKFtDSDJdMSlDKD1PKVtOSF1bQ0gyXVtDSDJdYzJbY0hdW2NIXVtjSF1bY0hdbjI=

> <s_epik_cmdline>
J2VwaWtfcHl0aG9uJywgJy1waCcsICc3LjAnLCAnLXRuJywgJzgnLCAnLW1hJywgJzIwMCcsICctbWV0YWxfYmluZGluZycsICctaW1hZScsICc8aW5maWxlLm1hZT4nLCAnLW9tYWUnLCAnPG91dGZpbGUubWFlPic=

> <r_epik_Ionization_Penalty>
1.83523

> <r_epik_Ionization_Penalty_Charging>
1.83523

> <r_epik_Ionization_Penalty_Neutral>
2.62835e-08

> <r_epik_State_Penalty>
1.95153

> <r_epik_Charging_Adjusted_Penalty>
3.78676

> <i_epik_Tot_Q>
1

> <i_epik_Tot_abs_Q>
1

> <r_epik_Metal_State_Penalty>
1.97791

> <b_epik_Metal_Only>
0

> <s_lp_Force_Field>
OPLS_2005

> <r_lp_Energy>
6.48015

> <b_lp_Chiralities_Consistent>
1

> <s_lp_Variant>
AV-unprocessed.smi:2149-3

> <Gold.Version>
5.8.1

> <Gold.Id.Protein>
6NUR|6NUR_protein|mol2

> <Gold.PLP.Fitness>
44.5847

> <Gold.PLP.PLP>
-36.9359

> <Gold.PLP.part.hbond>
-2.0000

> <Gold.PLP.part.metal>
0.0000

> <Gold.PLP.part.buried>
-5.1410

> <Gold.PLP.part.nonpolar>
-29.5115

> <Gold.PLP.part.repulsive>
0.0952

> <Gold.PLP.ligand.clash>
0.0000

> <Gold.PLP.ligand.torsion>
1.7402

> <Gold.PLP.Chemscore.Hbond>
3.0000

> <Gold.PLP.Chemscore.CHOScore>
0.0000

> <Gold.PLP.Chemscore.Metal>
0.0000

> <Gold.Chemscore.Hbonds>
donor molecule, donor type, donor heavy atom, donor atom, acceptor molecule, acceptor atom, score
      L1  H    12    32       P1  8028  0.23
      L1  H    20    43       P1  8028  2.00

> <Gold.PLP.Chemscore.Internal.Correction>
2.1291

> <Gold.Rescore>
     Score         DG    S(hbond)    S(metal)    S(lipo)     H(rot)  DE(clash)    DE(int)     intcor
     16.49     -18.31       1.73        0.00      96.29       1.65       0.04       1.78       ----

> <Gold.Chemscore.Fitness>
16.4852

> <Gold.Chemscore.DG>
-18.3069

> <Gold.Chemscore.ZeroCoef>
-5.4800

> <Gold.Chemscore.Hbond>
1.7350

> <Gold.Chemscore.Metal>
0.0000

> <Gold.Chemscore.Lipo>
96.2886

> <Gold.Chemscore.Internal_Hbond>
0.0000

> <Gold.Chemscore.DEClash>
0.0374

> <Gold.Chemscore.DEInternal>
1.7843

> <Gold.Chemscore.Rot>
1.6538

> <Gold.Chemscore.Internal.Correction>
   9.000000E+99

> <Gold.Chemscore.Hbonds>
donor molecule, donor type, donor heavy atom, donor atom, acceptor molecule, acceptor atom, score
      L1  H    12    32       P1  8028  0.20
      L1  H    20    43       P1  8028  0.34

> <Gold.Chemscore.Hbond.Weighted>
-5.7948

> <Gold.Chemscore.Metal.Weighted>
-0.0000

> <Gold.Chemscore.Lipo.Weighted>
-11.2658

> <Gold.Chemscore.Internal_Hbond.Weighted>
0.0000

> <Gold.Chemscore.DEClash.Weighted>
0.0374

> <Gold.Chemscore.DEInternal.Weighted>
1.7843

> <Gold.Chemscore.Rot.Weighted>
4.2337

> <Gold.Chemscore.Internal.Correction.Weighted>
   9.000000E+99

> <Gold.Protein.RotatedTorsions>
[ 6907 6896 6895 6894 ] final   79.69 input  -60.11 | X-H torsion
[ 7974 7965 7964 7962 ] final   -8.35 input  175.53 | X-H torsion
[ 8008 7997 7996 7995 ] final -110.18 input   59.86 | X-H torsion
[ 10167 10162 10161 10158 ] final -117.31 input  -65.29 | X-H torsion
[ 10718 10713 10712 10709 ] final   31.48 input   66.30 | X-H torsion
[ 10763 10752 10751 10750 ] final    7.03 input  -60.55 | X-H torsion
[ 11005 11000 10999 10996 ] final   62.24 input  -57.11 | X-H torsion

> <Gold.Protein.ActiveResidues>
 VAL166  LYS551  ARG553  GLY616  TRP617  ASP618  TYR619  PRO620  LYS621  CYS622 
 ASP623  PHE694  ASN695  SER759  ASP760  ASP761  ALA762  ILE779  LEU786  VAL792 
 PHE793  MET794  SER795  GLU796  ALA797  LYS798  CYS799  TRP800  GLU811  SER814 

> <Gold.Protein.RotatedAtoms>
  152.5208  134.3472  159.9238 H   0  0  0  0  0  0  0  0  0  0  0  0  # atno 6907 bound_to 6896
  151.3423  133.3951  159.2680 H   0  0  0  0  0  0  0  0  0  0  0  0  # atno 6908 bound_to 6896
  150.9794  134.9170  159.7893 H   0  0  0  0  0  0  0  0  0  0  0  0  # atno 6909 bound_to 6896
  146.2282  140.2456  142.8345 H   0  0  0  0  0  0  0  0  0  0  0  0  # atno 7974 bound_to 7965
  154.9706  140.0397  157.2233 H   0  0  0  0  0  0  0  0  0  0  0  0  # atno 8008 bound_to 7997
  154.7804  140.2818  155.6046 H   0  0  0  0  0  0  0  0  0  0  0  0  # atno 8009 bound_to 7997
  156.2935  140.2593  156.2628 H   0  0  0  0  0  0  0  0  0  0  0  0  # atno 8010 bound_to 7997
  140.0698  143.4888  152.1986 H   0  0  0  0  0  0  0  0  0  0  0  0  # atno 10167 bound_to 10162
  157.2730  130.7217  149.6515 H   0  0  0  0  0  0  0  0  0  0  0  0  # atno 10718 bound_to 10713
  153.2410  135.6903  153.7783 H   0  0  0  0  0  0  0  0  0  0  0  0  # atno 10763 bound_to 10752
  153.6913  135.3312  155.3203 H   0  0  0  0  0  0  0  0  0  0  0  0  # atno 10764 bound_to 10752
  154.8355  135.4546  154.1331 H   0  0  0  0  0  0  0  0  0  0  0  0  # atno 10765 bound_to 10752
  140.0106  134.6302  155.9787 H   0  0  0  0  0  0  0  0  0  0  0  0  # atno 11005 bound_to 11000
  144.9451  140.8120  143.5606 LP  0  0  0  0  0  0  0  0  0  0  0  0  # atno 17320 bound_to 7965
  145.2411  139.2072  143.4992 LP  0  0  0  0  0  0  0  0  0  0  0  0  # atno 17321 bound_to 7965
  139.5843  144.7524  151.3560 LP  0  0  0  0  0  0  0  0  0  0  0  0  # atno 17342 bound_to 10162
  140.7131  143.7337  150.7604 LP  0  0  0  0  0  0  0  0  0  0  0  0  # atno 17343 bound_to 10162
  155.9663  130.4361  150.5121 LP  0  0  0  0  0  0  0  0  0  0  0  0  # atno 17370 bound_to 10713
  157.3050  131.0652  151.2041 LP  0  0  0  0  0  0  0  0  0  0  0  0  # atno 17371 bound_to 10713
  141.1708  133.6537  156.4644 LP  0  0  0  0  0  0  0  0  0  0  0  0  # atno 17394 bound_to 11000
  140.4562  134.6883  157.5063 LP  0  0  0  0  0  0  0  0  0  0  0  0  # atno 17395 bound_to 11000

$$$$
