AV-unprocessed.smi:946|AV-procd|sdf|4235|dock2
  -GOLD-   22720 2143D 1   1.00000     0.00000
 Structure written by MMmdl.
 42 43  0  0  0  0  0  0  0  0  1 V2000
  148.3327  138.5739  157.1672 C   0  0  0  0  0  0  0  0  0  0  0  0
  149.6210  137.8896  157.6473 C   0  0  1  0  0  0  0  0  0  0  0  0
  150.3496  138.8398  158.4197 O   0  0  0  0  0  0  0  0  0  0  0  0
  150.7739  140.0022  157.7167 C   0  0  0  0  0  0  0  0  0  0  0  0
  151.2850  141.0321  158.7328 C   0  0  2  0  0  0  0  0  0  0  0  0
  151.5618  142.4001  158.0790 C   0  0  0  0  0  0  0  0  0  0  0  0
  152.1493  143.3775  159.1036 C   0  0  0  0  0  0  0  0  0  0  0  0
  153.3728  142.7469  159.7772 C   0  0  0  0  0  0  0  0  0  0  0  0
  153.0218  141.3571  160.3316 C   0  0  0  0  0  0  0  0  0  0  0  0
  152.5007  140.5367  159.2904 O   0  0  0  0  0  0  0  0  0  0  0  0
  149.3082  136.6453  158.4935 C   0  0  0  0  0  0  0  0  0  0  0  0
  149.7163  135.5424  158.1283 O   0  0  0  0  0  0  0  0  0  0  0  0
  148.5772  136.8626  159.6031 N   0  0  0  0  0  0  0  0  0  0  0  0
  148.1186  135.9132  160.5537 C   0  0  0  0  0  0  0  0  0  0  0  0
  147.6547  136.4588  161.7709 C   0  0  0  0  0  0  0  0  0  0  0  0
  147.1747  135.5982  162.7760 C   0  0  0  0  0  0  0  0  0  0  0  0
  147.1667  134.2124  162.5380 C   0  0  0  0  0  0  0  0  0  0  0  0
  147.6441  133.7446  161.2952 C   0  0  0  0  0  0  0  0  0  0  0  0
  147.6636  132.2612  160.9538 C   0  0  0  0  0  0  0  0  0  0  0  0
  146.4255  131.7696  161.0113 F   0  0  0  0  0  0  0  0  0  0  0  0
  148.1479  132.0429  159.7303 F   0  0  0  0  0  0  0  0  0  0  0  0
  148.4270  131.6090  161.8310 F   0  0  0  0  0  0  0  0  0  0  0  0
  148.1070  134.5756  160.3341 N   0  0  0  0  0  0  0  0  0  0  0  0
  147.7221  137.8950  156.5707 H   0  0  0  0  0  0  0  0  0  0  0  0
  148.5638  139.4393  156.5457 H   0  0  0  0  0  0  0  0  0  0  0  0
  147.7263  138.9234  158.0038 H   0  0  0  0  0  0  0  0  0  0  0  0
  150.2071  137.6088  156.7700 H   0  0  0  0  0  0  0  0  0  0  0  0
  151.5516  139.7786  156.9855 H   0  0  0  0  0  0  0  0  0  0  0  0
  149.9220  140.4122  157.1725 H   0  0  0  0  0  0  0  0  0  0  0  0
  150.5394  141.1528  159.5210 H   0  0  0  0  0  0  0  0  0  0  0  0
  152.2597  142.2777  157.2494 H   0  0  0  0  0  0  0  0  0  0  0  0
  150.6443  142.8118  157.6576 H   0  0  0  0  0  0  0  0  0  0  0  0
  152.4214  144.3171  158.6221 H   0  0  0  0  0  0  0  0  0  0  0  0
  151.3970  143.6161  159.8565 H   0  0  0  0  0  0  0  0  0  0  0  0
  154.1829  142.6550  159.0527 H   0  0  0  0  0  0  0  0  0  0  0  0
  153.7386  143.3919  160.5767 H   0  0  0  0  0  0  0  0  0  0  0  0
  153.9128  140.8816  160.7418 H   0  0  0  0  0  0  0  0  0  0  0  0
  152.2987  141.4325  161.1451 H   0  0  0  0  0  0  0  0  0  0  0  0
  148.3222  137.8216  159.7880 H   0  0  0  0  0  0  0  0  0  0  0  0
  147.6656  137.5263  161.9378 H   0  0  0  0  0  0  0  0  0  0  0  0
  146.8169  135.9960  163.7141 H   0  0  0  0  0  0  0  0  0  0  0  0
  146.8008  133.5338  163.2942 H   0  0  0  0  0  0  0  0  0  0  0  0
  1  2  1  0  0  0  0
  1 24  1  0  0  0  0
  1 25  1  0  0  0  0
  1 26  1  0  0  0  0
  2  3  1  0  0  0  0
  2 11  1  0  0  0  0
  2 27  1  0  0  0  0
  3  4  1  0  0  0  0
  4  5  1  0  0  0  0
  4 28  1  0  0  0  0
  4 29  1  0  0  0  0
  5 10  1  0  0  0  0
  5  6  1  0  0  0  0
  5 30  1  0  0  0  0
  6  7  1  0  0  0  0
  6 31  1  0  0  0  0
  6 32  1  0  0  0  0
  7  8  1  0  0  0  0
  7 33  1  0  0  0  0
  7 34  1  0  0  0  0
  8  9  1  0  0  0  0
  8 35  1  0  0  0  0
  8 36  1  0  0  0  0
  9 10  1  0  0  0  0
  9 37  1  0  0  0  0
  9 38  1  0  0  0  0
 11 12  2  0  0  0  0
 11 13  1  0  0  0  0
 13 14  1  0  0  0  0
 13 39  1  0  0  0  0
 14 23  1  0  0  0  0
 14 15  2  0  0  0  0
 15 16  1  0  0  0  0
 15 40  1  0  0  0  0
 16 17  2  0  0  0  0
 16 41  1  0  0  0  0
 17 18  1  0  0  0  0
 17 42  1  0  0  0  0
 18 19  1  0  0  0  0
 18 23  2  0  0  0  0
 19 20  1  0  0  0  0
 19 21  1  0  0  0  0
 19 22  1  0  0  0  0
M  END
> <s_m_source_file>
AV-unprocessed.smi

> <i_m_source_file_index>
946

> <i_lp_mmshare_version>
43012

> <i_f3d_flags>
0

> <s_epik_input>
TzFbQ0gyXVtDSDJdW0NIMl1bQ0gyXVtDQEhdMVtDSDJdT1tDQEBIXShbQ0gzXSlDKD1PKVtOSF1jMltjSF1bY0hdW2NIXWMobjIpQyhGKShGKUY=

> <s_epik_cmdline>
J2VwaWtfcHl0aG9uJywgJy1waCcsICc3LjAnLCAnLXRuJywgJzgnLCAnLW1hJywgJzIwMCcsICctbWV0YWxfYmluZGluZycsICctaW1hZScsICc8aW5maWxlLm1hZT4nLCAnLW9tYWUnLCAnPG91dGZpbGUubWFlPic=

> <r_lp_tautomer_probability>
1

> <r_epik_Ionization_Penalty>
1.32683e-06

> <r_epik_Ionization_Penalty_Charging>
0

> <r_epik_Ionization_Penalty_Neutral>
1.32683e-06

> <r_epik_State_Penalty>
-0

> <r_epik_Charging_Adjusted_Penalty>
0

> <i_epik_Tot_Q>
0

> <i_epik_Tot_abs_Q>
0

> <r_epik_Metal_State_Penalty>
-0

> <b_epik_Metal_Only>
0

> <s_lp_Force_Field>
OPLS_2005

> <r_lp_Energy>
15.913

> <b_lp_Chiralities_Consistent>
1

> <s_lp_Variant>
AV-unprocessed.smi:946-2

> <Gold.Version>
5.8.1

> <Gold.Id.Protein>
6NUR|6NUR_protein|mol2

> <Gold.PLP.Fitness>
46.2551

> <Gold.PLP.PLP>
-43.4283

> <Gold.PLP.part.hbond>
-1.0000

> <Gold.PLP.part.metal>
0.0000

> <Gold.PLP.part.buried>
-5.1400

> <Gold.PLP.part.nonpolar>
-37.7491

> <Gold.PLP.part.repulsive>
0.2182

> <Gold.PLP.ligand.clash>
0.0000

> <Gold.PLP.ligand.torsion>
0.1264

> <Gold.PLP.Chemscore.Hbond>
1.0000

> <Gold.PLP.Chemscore.CHOScore>
0.0000

> <Gold.PLP.Chemscore.Metal>
0.0000

> <Gold.Chemscore.Hbonds>
donor molecule, donor type, donor heavy atom, donor atom, acceptor molecule, acceptor atom, score
      P1  H  6896  6907       L1    12  1.00

> <Gold.PLP.Chemscore.Internal.Correction>
0.0795

> <Gold.Rescore>
     Score         DG    S(hbond)    S(metal)    S(lipo)     H(rot)  DE(clash)    DE(int)     intcor
     14.45     -15.95       0.96        0.00     100.60       1.76       0.12       1.39       ----

> <Gold.Chemscore.Fitness>
14.4485

> <Gold.Chemscore.DG>
-15.9538

> <Gold.Chemscore.ZeroCoef>
-5.4800

> <Gold.Chemscore.Hbond>
0.9575

> <Gold.Chemscore.Metal>
0.0000

> <Gold.Chemscore.Lipo>
100.6014

> <Gold.Chemscore.Internal_Hbond>
0.0000

> <Gold.Chemscore.DEClash>
0.1192

> <Gold.Chemscore.DEInternal>
1.3861

> <Gold.Chemscore.Rot>
1.7557

> <Gold.Chemscore.Internal.Correction>
   9.000000E+99

> <Gold.Chemscore.Hbonds>
donor molecule, donor type, donor heavy atom, donor atom, acceptor molecule, acceptor atom, score
      P1  H  6896  6907       L1    12  0.82

> <Gold.Chemscore.Hbond.Weighted>
-3.1981

> <Gold.Chemscore.Metal.Weighted>
-0.0000

> <Gold.Chemscore.Lipo.Weighted>
-11.7704

> <Gold.Chemscore.Internal_Hbond.Weighted>
0.0000

> <Gold.Chemscore.DEClash.Weighted>
0.1192

> <Gold.Chemscore.DEInternal.Weighted>
1.3861

> <Gold.Chemscore.Rot.Weighted>
4.4946

> <Gold.Chemscore.Internal.Correction.Weighted>
   9.000000E+99

> <Gold.Protein.RotatedTorsions>
[ 6907 6896 6895 6894 ] final  -70.52 input  -60.11 | X-H torsion
[ 7974 7965 7964 7962 ] final -100.52 input  175.53 | X-H torsion
[ 8008 7997 7996 7995 ] final   22.53 input   59.86 | X-H torsion
[ 10167 10162 10161 10158 ] final -162.22 input  -65.29 | X-H torsion
[ 10718 10713 10712 10709 ] final  -88.61 input   66.30 | X-H torsion
[ 10763 10752 10751 10750 ] final  126.66 input  -60.55 | X-H torsion
[ 11005 11000 10999 10996 ] final   14.06 input  -57.11 | X-H torsion

> <Gold.Protein.ActiveResidues>
 VAL166  LYS551  ARG553  GLY616  TRP617  ASP618  TYR619  PRO620  LYS621  CYS622 
 ASP623  PHE694  ASN695  SER759  ASP760  ASP761  ALA762  ILE779  LEU786  VAL792 
 PHE793  MET794  SER795  GLU796  ALA797  LYS798  CYS799  TRP800  GLU811  SER814 

> <Gold.Protein.RotatedAtoms>
  150.7254  134.5441  159.5761 H   0  0  0  0  0  0  0  0  0  0  0  0  # atno 6907 bound_to 6896
  152.2944  134.7681  160.0380 H   0  0  0  0  0  0  0  0  0  0  0  0  # atno 6908 bound_to 6896
  151.8283  133.3369  159.3642 H   0  0  0  0  0  0  0  0  0  0  0  0  # atno 6909 bound_to 6896
  145.2935  140.9359  143.2864 H   0  0  0  0  0  0  0  0  0  0  0  0  # atno 7974 bound_to 7965
  154.9672  140.3085  155.5004 H   0  0  0  0  0  0  0  0  0  0  0  0  # atno 8008 bound_to 7997
  156.2970  140.2290  156.4700 H   0  0  0  0  0  0  0  0  0  0  0  0  # atno 8009 bound_to 7997
  154.7910  140.0440  157.1189 H   0  0  0  0  0  0  0  0  0  0  0  0  # atno 8010 bound_to 7997
  139.6408  144.0264  152.2090 H   0  0  0  0  0  0  0  0  0  0  0  0  # atno 10167 bound_to 10162
  155.9983  130.4842  150.5045 H   0  0  0  0  0  0  0  0  0  0  0  0  # atno 10718 bound_to 10713
  153.6970  135.3289  155.3215 H   0  0  0  0  0  0  0  0  0  0  0  0  # atno 10763 bound_to 10752
  154.8424  135.4445  154.1450 H   0  0  0  0  0  0  0  0  0  0  0  0  # atno 10764 bound_to 10752
  153.2507  135.6981  153.7760 H   0  0  0  0  0  0  0  0  0  0  0  0  # atno 10765 bound_to 10752
  140.4738  134.1004  155.7737 H   0  0  0  0  0  0  0  0  0  0  0  0  # atno 11005 bound_to 11000
  144.9153  139.4478  143.6567 LP  0  0  0  0  0  0  0  0  0  0  0  0  # atno 17320 bound_to 7965
  146.3177  139.7984  142.8970 LP  0  0  0  0  0  0  0  0  0  0  0  0  # atno 17321 bound_to 7965
  139.9953  144.6332  150.7778 LP  0  0  0  0  0  0  0  0  0  0  0  0  # atno 17342 bound_to 10162
  140.7489  143.2931  151.3278 LP  0  0  0  0  0  0  0  0  0  0  0  0  # atno 17343 bound_to 10162
  157.3026  131.0648  151.2058 LP  0  0  0  0  0  0  0  0  0  0  0  0  # atno 17370 bound_to 10713
  157.3032  130.6853  149.6175 LP  0  0  0  0  0  0  0  0  0  0  0  0  # atno 17371 bound_to 10713
  141.1564  133.8874  157.1965 LP  0  0  0  0  0  0  0  0  0  0  0  0  # atno 17394 bound_to 11000
  139.9869  135.0079  156.9883 LP  0  0  0  0  0  0  0  0  0  0  0  0  # atno 17395 bound_to 11000

$$$$
