#       Name:                AV-unprocessed.smi:3314
#       Creating user name   scv26
#       Creation time:       Fri Mar 27 19:07:55 2020


#       File generated by GOLD software.
#

@<TRIPOS>MOLECULE
AV-unprocessed.smi:3314
    43    44     1
SMALL
NO_CHARGES


@<TRIPOS>ATOM
      1 ****        -4.2500   3.7044  -0.0482 C.3            1 S1                 0.0000
      2 ****        -3.5713   2.3559  -0.1678 C.ar           1 S1                 0.0000
      3 ****        -4.3263   1.1711  -0.2596 C.ar           1 S1                 0.0000
      4 ****        -3.6349  -0.0511  -0.3714 C.ar           1 S1                 0.0000
      5 ****        -4.3837  -1.3633  -0.4727 C.3            1 S1                 0.0000
      6 ****        -2.2873  -0.1358  -0.3951 N.ar           1 S1                 0.0000
      7 ****        -1.5505   0.9993  -0.3097 C.ar           1 S1                 0.0000
      8 ****        -0.1310   1.0182  -0.3260 N.am           1 S1                 0.0000
      9 ****         0.7150  -0.0152  -0.4950 C.2            1 S1                 0.0000
     10 ****         0.3647  -1.1812  -0.6829 O.2            1 S1                 0.0000
     11 ****         2.2119   0.3473  -0.4435 C.3            1 S1                 0.0000
     12 ****         3.1692  -0.7802  -0.8994 C.3            1 S1                 0.0000
     13 ****         3.2336  -1.8728   0.1007 N.4            1 S1                 1.0000
     14 ****         4.1061  -2.9869  -0.3261 C.3            1 S1                 0.0000
     15 ****         3.5914  -1.3443   1.4360 C.3            1 S1                 0.0000
     16 ****         2.6040  -0.2440   1.8567 C.3            1 S1                 0.0000
     17 ****         2.5799   0.7855   0.8678 O.3            1 S1                 0.0000
     18 ****        -2.1650   2.2658  -0.1913 C.ar           1 S1                 0.0000
     19 ****        -5.3353   3.6016  -0.0206 H              1 S1                 0.0000
     20 ****        -3.9886   4.3348  -0.8983 H              1 S1                 0.0000
     21 ****        -3.9322   4.2086   0.8646 H              1 S1                 0.0000
     22 ****        -5.4063   1.1980  -0.2450 H              1 S1                 0.0000
     23 ****        -5.4611  -1.2019  -0.5166 H              1 S1                 0.0000
     24 ****        -4.1677  -1.9899   0.3930 H              1 S1                 0.0000
     25 ****        -4.0847  -1.9031  -1.3717 H              1 S1                 0.0000
     26 ****         0.2917   1.9263  -0.1995 H              1 S1                 0.0000
     27 ****         2.3504   1.1956  -1.1151 H              1 S1                 0.0000
     28 ****         2.8525  -1.1804  -1.8639 H              1 S1                 0.0000
     29 ****         4.1696  -0.3706  -1.0475 H              1 S1                 0.0000
     30 ****         5.1425  -2.6595  -0.4212 H              1 S1                 0.0000
     31 ****         3.7816  -3.3815  -1.2895 H              1 S1                 0.0000
     32 ****         4.0691  -3.8019   0.3973 H              1 S1                 0.0000
     33 ****         3.5801  -2.1519   2.1687 H              1 S1                 0.0000
     34 ****         4.6072  -0.9465   1.4128 H              1 S1                 0.0000
     35 ****         1.6075  -0.6568   2.0192 H              1 S1                 0.0000
     36 ****         2.9158   0.1923   2.8057 H              1 S1                 0.0000
     37 ****        -1.5666   3.1630  -0.1225 H              1 S1                 0.0000
     38 ****         2.2986  -2.2490   0.1766 H              1 S1                 0.0000
     39 ****        -1.8380  -1.0256  -0.4747 LP             1 S1                 0.0000
     40 ****        -0.6077  -1.4116  -0.7181 LP             1 S1                 0.0000
     41 ****         1.0528  -1.8973  -0.8002 LP             1 S1                 0.0000
     42 ****         1.9239   1.4818   1.1591 LP             1 S1                 0.0000
     43 ****         3.4934   1.1891   0.8163 LP             1 S1                 0.0000
@<TRIPOS>BOND
    1    1    2 1     
    2    1   19 1     
    3    1   20 1     
    4    1   21 1     
    5    2   18 ar    
    6    2    3 ar    
    7    3    4 ar    
    8    3   22 1     
    9    4    5 1     
   10    4    6 ar    
   11    5   23 1     
   12    5   24 1     
   13    5   25 1     
   14    6    7 ar    
   15    7    8 1     
   16    7   18 ar    
   17    8    9 am    
   18    8   26 1     
   19    9   10 2     
   20    9   11 1     
   21   11   17 1     
   22   11   12 1     
   23   11   27 1     
   24   12   13 1     
   25   12   28 1     
   26   12   29 1     
   27   13   14 1     
   28   13   15 1     
   29   13   38 1     
   30   14   30 1     
   31   14   31 1     
   32   14   32 1     
   33   15   16 1     
   34   15   33 1     
   35   15   34 1     
   36   16   17 1     
   37   16   35 1     
   38   16   36 1     
   39   18   37 1     
   40    6   39 1     
   41   10   40 1     
   42   10   41 1     
   43   17   42 1     
   44   17   43 1     
@<TRIPOS>SUBSTRUCTURE
      1 S1             1
@<TRIPOS>SET
LONE_PAIRS      STATIC     ATOMS    <user>   **** ""
5 39 40 41 42 43
DONOR_HYDROGENS      STATIC     ATOMS    <user>   **** ""
2 26 38
ATOM$BLUE        STATIC     ATOMS    COLORGROUP SYSTEM
5 39 40 41 42 43
ATOM$RED        STATIC     ATOMS    COLORGROUP SYSTEM
2 26 38
