AV-unprocessed.smi:2426|AV-procd|sdf|9576|dock4
  -GOLD-   2272013203D 1   1.00000     0.00000
 Structure written by MMmdl.
 36 37  0  0  0  0  0  0  0  0  1 V2000
  146.1984  142.5423  155.1220 C   0  0  0  0  0  0  0  0  0  0  0  0
  146.5438  141.3104  154.4990 O   0  0  0  0  0  0  0  0  0  0  0  0
  147.8563  140.8914  154.5676 C   0  0  0  0  0  0  0  0  0  0  0  0
  148.7561  141.5741  155.4115 C   0  0  0  0  0  0  0  0  0  0  0  0
  150.0911  141.1129  155.4525 C   0  0  0  0  0  0  0  0  0  0  0  0
  150.9639  141.8272  156.3152 N   0  0  0  0  0  0  0  0  0  0  0  0
  150.6586  142.4734  157.4542 C   0  0  0  0  0  0  0  0  0  0  0  0
  149.5345  142.5477  157.9515 O   0  0  0  0  0  0  0  0  0  0  0  0
  151.7469  143.0405  157.9952 N   0  0  0  0  0  0  0  0  0  0  0  0
  151.7744  143.8129  159.2341 C   0  0  2  0  0  0  0  0  0  0  0  0
  152.0141  145.3001  158.9276 C   0  0  0  0  0  0  0  0  0  0  0  0
  152.8456  143.2368  160.1585 C   0  0  0  0  0  0  0  0  0  0  0  0
  152.9392  141.7180  160.3727 C   0  0  0  0  0  0  0  0  0  0  0  0
  153.3666  141.9946  161.8169 C   0  0  0  0  0  0  0  0  0  0  0  0
  152.6990  143.3660  161.6826 C   0  0  0  0  0  0  0  0  0  0  0  0
  150.4631  140.0504  154.6966 N   0  0  0  0  0  0  0  0  0  0  0  0
  149.5360  139.4729  153.9305 C   0  0  0  0  0  0  0  0  0  0  0  0
  148.2564  139.8324  153.8234 N   0  0  0  0  0  0  0  0  0  0  0  0
  145.1348  142.7327  154.9806 H   0  0  0  0  0  0  0  0  0  0  0  0
  146.7449  143.3785  154.6835 H   0  0  0  0  0  0  0  0  0  0  0  0
  146.3895  142.5130  156.1955 H   0  0  0  0  0  0  0  0  0  0  0  0
  148.4296  142.4179  156.0016 H   0  0  0  0  0  0  0  0  0  0  0  0
  151.9320  141.8501  156.0318 H   0  0  0  0  0  0  0  0  0  0  0  0
  152.6280  142.9287  157.5155 H   0  0  0  0  0  0  0  0  0  0  0  0
  150.8045  143.7211  159.7268 H   0  0  0  0  0  0  0  0  0  0  0  0
  152.0229  145.8931  159.8422 H   0  0  0  0  0  0  0  0  0  0  0  0
  151.2306  145.7036  158.2856 H   0  0  0  0  0  0  0  0  0  0  0  0
  152.9690  145.4519  158.4234 H   0  0  0  0  0  0  0  0  0  0  0  0
  153.8347  143.6073  159.8791 H   0  0  0  0  0  0  0  0  0  0  0  0
  151.9705  141.2198  160.3089 H   0  0  0  0  0  0  0  0  0  0  0  0
  153.6901  141.2162  159.7616 H   0  0  0  0  0  0  0  0  0  0  0  0
  152.9166  141.3370  162.5612 H   0  0  0  0  0  0  0  0  0  0  0  0
  154.4496  142.0604  161.9333 H   0  0  0  0  0  0  0  0  0  0  0  0
  153.2568  144.1917  162.1254 H   0  0  0  0  0  0  0  0  0  0  0  0
  151.6583  143.3614  162.0108 H   0  0  0  0  0  0  0  0  0  0  0  0
  149.8547  138.6292  153.3365 H   0  0  0  0  0  0  0  0  0  0  0  0
  1  2  1  0  0  0  0
  1 19  1  0  0  0  0
  1 20  1  0  0  0  0
  1 21  1  0  0  0  0
  2  3  1  0  0  0  0
  3 18  1  0  0  0  0
  3  4  2  0  0  0  0
  4  5  1  0  0  0  0
  4 22  1  0  0  0  0
  5  6  1  0  0  0  0
  5 16  2  0  0  0  0
  6  7  1  0  0  0  0
  6 23  1  0  0  0  0
  7  8  2  0  0  0  0
  7  9  1  0  0  0  0
  9 10  1  0  0  0  0
  9 24  1  0  0  0  0
 10 11  1  0  0  0  0
 10 12  1  0  0  0  0
 10 25  1  0  0  0  0
 11 26  1  0  0  0  0
 11 27  1  0  0  0  0
 11 28  1  0  0  0  0
 12 15  1  0  0  0  0
 12 13  1  0  0  0  0
 12 29  1  0  0  0  0
 13 14  1  0  0  0  0
 13 30  1  0  0  0  0
 13 31  1  0  0  0  0
 14 15  1  0  0  0  0
 14 32  1  0  0  0  0
 14 33  1  0  0  0  0
 15 34  1  0  0  0  0
 15 35  1  0  0  0  0
 16 17  1  0  0  0  0
 17 18  2  0  0  0  0
 17 36  1  0  0  0  0
M  END
> <s_m_source_file>
AV-unprocessed.smi

> <i_m_source_file_index>
2426

> <i_lp_mmshare_version>
43012

> <i_f3d_flags>
0

> <s_epik_input>
W0NIM11PYzFbY0hdYyhuW2NIXW4xKVtOSF1DKD1PKVtOSF1bQ0BIXShbQ0gzXSlbQ0hdMltDSDJdW0NIMl1bQ0gyXTI=

> <s_epik_cmdline>
J2VwaWtfcHl0aG9uJywgJy1waCcsICc3LjAnLCAnLXRuJywgJzgnLCAnLW1hJywgJzIwMCcsICctbWV0YWxfYmluZGluZycsICctaW1hZScsICc8aW5maWxlLm1hZT4nLCAnLW9tYWUnLCAnPG91dGZpbGUubWFlPic=

> <r_lp_tautomer_probability>
1

> <r_epik_Ionization_Penalty>
2.84534e-05

> <r_epik_Ionization_Penalty_Charging>
0

> <r_epik_Ionization_Penalty_Neutral>
2.84534e-05

> <r_epik_State_Penalty>
-0

> <r_epik_Charging_Adjusted_Penalty>
0

> <i_epik_Tot_Q>
0

> <i_epik_Tot_abs_Q>
0

> <r_epik_Metal_State_Penalty>
-0

> <b_epik_Metal_Only>
0

> <s_lp_Force_Field>
OPLS_2005

> <r_lp_Energy>
12.1235

> <b_lp_Chiralities_Consistent>
1

> <s_lp_Variant>
AV-unprocessed.smi:2426-1

> <Gold.Version>
5.8.1

> <Gold.Id.Protein>
6NUR|6NUR_protein|mol2

> <Gold.PLP.Fitness>
41.0882

> <Gold.PLP.PLP>
-38.7171

> <Gold.PLP.part.hbond>
-1.0000

> <Gold.PLP.part.metal>
0.0000

> <Gold.PLP.part.buried>
-2.9412

> <Gold.PLP.part.nonpolar>
-35.1131

> <Gold.PLP.part.repulsive>
1.5880

> <Gold.PLP.ligand.clash>
0.0000

> <Gold.PLP.ligand.torsion>
0.7467

> <Gold.PLP.Chemscore.Hbond>
1.0000

> <Gold.PLP.Chemscore.CHOScore>
0.2375

> <Gold.PLP.Chemscore.Metal>
0.0000

> <Gold.Chemscore.Hbonds>
donor molecule, donor type, donor heavy atom, donor atom, acceptor molecule, acceptor atom, score
      P1  H  7989  7998       L1    16  1.00
      L1  C    17    36       P1  7948  0.04
      L1  C    17    36       P1  7957  0.19

> <Gold.PLP.Chemscore.Internal.Correction>
0.1519

> <Gold.Rescore>
     Score         DG    S(hbond)    S(metal)    S(lipo)     H(rot)  DE(clash)    DE(int)     intcor
      9.17     -11.50       0.26        0.00      79.10       1.60       0.16       2.18       ----

> <Gold.Chemscore.Fitness>
9.1655

> <Gold.Chemscore.DG>
-11.5032

> <Gold.Chemscore.ZeroCoef>
-5.4800

> <Gold.Chemscore.Hbond>
0.2565

> <Gold.Chemscore.Metal>
0.0000

> <Gold.Chemscore.Lipo>
79.1034

> <Gold.Chemscore.Internal_Hbond>
0.0000

> <Gold.Chemscore.DEClash>
0.1576

> <Gold.Chemscore.DEInternal>
2.1801

> <Gold.Chemscore.Rot>
1.5971

> <Gold.Chemscore.Internal.Correction>
   9.000000E+99

> <Gold.Chemscore.Hbonds>
donor molecule, donor type, donor heavy atom, donor atom, acceptor molecule, acceptor atom, score
      P1  H  7989  7998       L1    16  0.15

> <Gold.Chemscore.Hbond.Weighted>
-0.8567

> <Gold.Chemscore.Metal.Weighted>
-0.0000

> <Gold.Chemscore.Lipo.Weighted>
-9.2551

> <Gold.Chemscore.Internal_Hbond.Weighted>
0.0000

> <Gold.Chemscore.DEClash.Weighted>
0.1576

> <Gold.Chemscore.DEInternal.Weighted>
2.1801

> <Gold.Chemscore.Rot.Weighted>
4.0886

> <Gold.Chemscore.Internal.Correction.Weighted>
   9.000000E+99

> <Gold.Protein.RotatedTorsions>
[ 6907 6896 6895 6894 ] final  -26.50 input  -60.11 | X-H torsion
[ 7974 7965 7964 7962 ] final  125.53 input  175.53 | X-H torsion
[ 8008 7997 7996 7995 ] final  134.84 input   59.86 | X-H torsion
[ 10167 10162 10161 10158 ] final   46.50 input  -65.29 | X-H torsion
[ 10718 10713 10712 10709 ] final -141.09 input   66.30 | X-H torsion
[ 10763 10752 10751 10750 ] final -177.20 input  -60.55 | X-H torsion
[ 11005 11000 10999 10996 ] final  -65.23 input  -57.11 | X-H torsion

> <Gold.Protein.ActiveResidues>
 VAL166  LYS551  ARG553  GLY616  TRP617  ASP618  TYR619  PRO620  LYS621  CYS622 
 ASP623  PHE694  ASN695  SER759  ASP760  ASP761  ALA762  ILE779  LEU786  VAL792 
 PHE793  MET794  SER795  GLU796  ALA797  LYS798  CYS799  TRP800  GLU811  SER814 

> <Gold.Protein.RotatedAtoms>
  151.1602  135.0269  159.8706 H   0  0  0  0  0  0  0  0  0  0  0  0  # atno 6907 bound_to 6896
  152.5451  134.1288  159.8440 H   0  0  0  0  0  0  0  0  0  0  0  0  # atno 6908 bound_to 6896
  151.1383  133.4943  159.2630 H   0  0  0  0  0  0  0  0  0  0  0  0  # atno 6909 bound_to 6896
  145.0719  139.3723  143.4953 H   0  0  0  0  0  0  0  0  0  0  0  0  # atno 7974 bound_to 7965
  156.3001  140.2486  156.3483 H   0  0  0  0  0  0  0  0  0  0  0  0  # atno 8008 bound_to 7997
  154.8990  140.0407  157.1901 H   0  0  0  0  0  0  0  0  0  0  0  0  # atno 8009 bound_to 7997
  154.8520  140.2907  155.5596 H   0  0  0  0  0  0  0  0  0  0  0  0  # atno 8010 bound_to 7997
  140.3133  144.2794  150.6196 H   0  0  0  0  0  0  0  0  0  0  0  0  # atno 10167 bound_to 10162
  156.3300  130.7581  151.1696 H   0  0  0  0  0  0  0  0  0  0  0  0  # atno 10718 bound_to 10713
  154.5630  135.2821  155.0901 H   0  0  0  0  0  0  0  0  0  0  0  0  # atno 10763 bound_to 10752
  154.2302  135.6375  153.5177 H   0  0  0  0  0  0  0  0  0  0  0  0  # atno 10764 bound_to 10752
  153.0034  135.5535  154.6230 H   0  0  0  0  0  0  0  0  0  0  0  0  # atno 10765 bound_to 10752
  141.1448  133.6678  156.5954 H   0  0  0  0  0  0  0  0  0  0  0  0  # atno 11005 bound_to 11000
  146.3529  140.0468  142.8639 LP  0  0  0  0  0  0  0  0  0  0  0  0  # atno 17320 bound_to 7965
  145.1282  140.9502  143.4560 LP  0  0  0  0  0  0  0  0  0  0  0  0  # atno 17321 bound_to 7965
  140.5549  143.2200  151.7864 LP  0  0  0  0  0  0  0  0  0  0  0  0  # atno 17342 bound_to 10162
  139.4889  144.4427  151.9746 LP  0  0  0  0  0  0  0  0  0  0  0  0  # atno 17343 bound_to 10162
  157.7428  131.0484  150.4993 LP  0  0  0  0  0  0  0  0  0  0  0  0  # atno 17370 bound_to 10713
  156.5157  130.4150  149.6277 LP  0  0  0  0  0  0  0  0  0  0  0  0  # atno 17371 bound_to 10713
  140.3730  134.7589  157.4611 LP  0  0  0  0  0  0  0  0  0  0  0  0  # atno 17394 bound_to 11000
  140.0696  134.5881  155.8657 LP  0  0  0  0  0  0  0  0  0  0  0  0  # atno 17395 bound_to 11000

$$$$
