AV-unprocessed.smi:1230|AV-procd|sdf|5153|dock1
  -GOLD-   22720 4223D 1   1.00000     0.00000
 Structure written by MMmdl.
 38 39  0  0  0  0  0  0  0  0  2 V2000
  151.2612  145.4344  160.1434 C   0  0  0  0  0  0  0  0  0  0  0  0
  152.3647  144.3839  160.3423 C   0  0  1  0  0  0  0  0  0  0  0  0
  152.0733  143.4679  161.5480 C   0  0  0  0  0  0  0  0  0  0  0  0
  153.2049  142.4512  161.7688 C   0  0  0  0  0  0  0  0  0  0  0  0
  153.4646  141.6212  160.5027 C   0  0  0  0  0  0  0  0  0  0  0  0
  153.7526  142.5252  159.2921 C   0  0  0  0  0  0  0  0  0  0  0  0
  152.6314  143.5555  159.0638 C   0  0  1  0  0  0  0  0  0  0  0  0
  151.4557  142.8460  158.6885 O   0  0  0  0  0  0  0  0  0  0  0  0
  151.1957  142.8476  157.2941 C   0  0  0  0  0  0  0  0  0  0  0  0
  150.0902  141.8250  156.9993 C   0  0  0  0  0  0  0  0  0  0  0  0
  150.6532  140.5500  156.5376 N   0  0  0  0  0  0  0  0  0  0  0  0
  151.1974  139.6914  157.5077 C   0  0  0  0  0  0  0  0  0  0  0  0
  151.7430  138.5062  157.1754 C   0  0  0  0  0  0  0  0  0  0  0  0
  152.3054  137.6183  158.1389 C   0  0  0  0  0  0  0  0  0  0  0  0
  152.7731  136.9226  158.9377 N   0  0  0  0  0  0  0  0  0  0  0  0
  151.7648  138.1157  155.7675 C   0  0  0  0  0  0  0  0  0  0  0  0
  152.2521  137.0359  155.4356 O   0  0  0  0  0  0  0  0  0  0  0  0
  151.2305  138.9926  154.8671 N   0  5  0  0  0  0  0  0  0  0  0  0
  150.6827  140.1983  155.2169 C   0  0  0  0  0  0  0  0  0  0  0  0
  150.2190  140.9769  154.3834 O   0  0  0  0  0  0  0  0  0  0  0  0
  150.2944  144.9670  159.9539 H   0  0  0  0  0  0  0  0  0  0  0  0
  151.4873  146.0870  159.2998 H   0  0  0  0  0  0  0  0  0  0  0  0
  151.1554  146.0643  161.0268 H   0  0  0  0  0  0  0  0  0  0  0  0
  153.2811  144.9320  160.5664 H   0  0  0  0  0  0  0  0  0  0  0  0
  151.9435  144.0684  162.4489 H   0  0  0  0  0  0  0  0  0  0  0  0
  151.1319  142.9389  161.3934 H   0  0  0  0  0  0  0  0  0  0  0  0
  154.1169  142.9765  162.0549 H   0  0  0  0  0  0  0  0  0  0  0  0
  152.9544  141.7919  162.6003 H   0  0  0  0  0  0  0  0  0  0  0  0
  154.3030  140.9439  160.6676 H   0  0  0  0  0  0  0  0  0  0  0  0
  152.5981  140.9924  160.2947 H   0  0  0  0  0  0  0  0  0  0  0  0
  154.6957  143.0492  159.4517 H   0  0  0  0  0  0  0  0  0  0  0  0
  153.8876  141.9177  158.3967 H   0  0  0  0  0  0  0  0  0  0  0  0
  152.9521  144.2285  158.2657 H   0  0  0  0  0  0  0  0  0  0  0  0
  150.8873  143.8427  156.9707 H   0  0  0  0  0  0  0  0  0  0  0  0
  152.1047  142.5892  156.7486 H   0  0  0  0  0  0  0  0  0  0  0  0
  149.4902  141.6674  157.8965 H   0  0  0  0  0  0  0  0  0  0  0  0
  149.3962  142.2293  156.2603 H   0  0  0  0  0  0  0  0  0  0  0  0
  151.1490  140.0555  158.5237 H   0  0  0  0  0  0  0  0  0  0  0  0
  1  2  1  0  0  0  0
  1 21  1  0  0  0  0
  1 22  1  0  0  0  0
  1 23  1  0  0  0  0
  2  7  1  0  0  0  0
  2  3  1  0  0  0  0
  2 24  1  0  0  0  0
  3  4  1  0  0  0  0
  3 25  1  0  0  0  0
  3 26  1  0  0  0  0
  4  5  1  0  0  0  0
  4 27  1  0  0  0  0
  4 28  1  0  0  0  0
  5  6  1  0  0  0  0
  5 29  1  0  0  0  0
  5 30  1  0  0  0  0
  6  7  1  0  0  0  0
  6 31  1  0  0  0  0
  6 32  1  0  0  0  0
  7  8  1  0  0  0  0
  7 33  1  0  0  0  0
  8  9  1  0  0  0  0
  9 10  1  0  0  0  0
  9 34  1  0  0  0  0
  9 35  1  0  0  0  0
 10 11  1  0  0  0  0
 10 36  1  0  0  0  0
 10 37  1  0  0  0  0
 11 19  1  0  0  0  0
 11 12  1  0  0  0  0
 12 13  2  0  0  0  0
 12 38  1  0  0  0  0
 13 14  1  0  0  0  0
 13 16  1  0  0  0  0
 14 15  3  0  0  0  0
 16 17  2  0  0  0  0
 16 18  1  0  0  0  0
 18 19  1  0  0  0  0
 19 20  2  0  0  0  0
M  CHG  1  18  -1
M  END
> <s_m_source_file>
AV-unprocessed.smi

> <i_m_source_file_index>
1230

> <i_lp_mmshare_version>
43012

> <i_f3d_flags>
0

> <s_epik_input>
W0NIM11bQ0BASF0xW0NIMl1bQ0gyXVtDSDJdW0NIMl1bQ0BIXTFPW0NIMl1bQ0gyXW4yW2NIXWMoQyNOKWMoPU8pW25IXWMyPU8=

> <s_epik_cmdline>
J2VwaWtfcHl0aG9uJywgJy1waCcsICc3LjAnLCAnLXRuJywgJzgnLCAnLW1hJywgJzIwMCcsICctbWV0YWxfYmluZGluZycsICctaW1hZScsICc8aW5maWxlLm1hZT4nLCAnLW9tYWUnLCAnPG91dGZpbGUubWFlPic=

> <r_epik_Ionization_Penalty>
0.400014

> <r_epik_Ionization_Penalty_Charging>
4.81474e-10

> <r_epik_Ionization_Penalty_Neutral>
0.400014

> <r_epik_State_Penalty>
0.399305

> <r_epik_Charging_Adjusted_Penalty>
0.399305

> <i_epik_Tot_Q>
-1

> <i_epik_Tot_abs_Q>
1

> <r_epik_Metal_State_Penalty>
0.00056968

> <b_epik_Metal_Only>
0

> <s_lp_Force_Field>
OPLS_2005

> <r_lp_Energy>
24.4713

> <b_lp_Chiralities_Consistent>
1

> <s_lp_Variant>
AV-unprocessed.smi:1230-2

> <Gold.Version>
5.8.1

> <Gold.Id.Protein>
6NUR|6NUR_protein|mol2

> <Gold.PLP.Fitness>
50.6353

> <Gold.PLP.PLP>
-43.8550

> <Gold.PLP.part.hbond>
-3.0000

> <Gold.PLP.part.metal>
0.0000

> <Gold.PLP.part.buried>
-5.8404

> <Gold.PLP.part.nonpolar>
-33.9590

> <Gold.PLP.part.repulsive>
0.1729

> <Gold.PLP.ligand.clash>
0.0000

> <Gold.PLP.ligand.torsion>
1.1303

> <Gold.PLP.Chemscore.Hbond>
3.0000

> <Gold.PLP.Chemscore.CHOScore>
0.0000

> <Gold.PLP.Chemscore.Metal>
0.0000

> <Gold.Chemscore.Hbonds>
donor molecule, donor type, donor heavy atom, donor atom, acceptor molecule, acceptor atom, score
      P1  H  6896  6907       L1    15  0.12
      P1  H  7989  7998       L1    20  0.34
      P1  H 10752 10765       L1    17  0.83

> <Gold.PLP.Chemscore.Internal.Correction>
0.0408

> <Gold.Rescore>
     Score         DG    S(hbond)    S(metal)    S(lipo)     H(rot)  DE(clash)    DE(int)     intcor
     21.26     -22.35       2.90        0.00     103.03       1.90       0.04       1.05       ----

> <Gold.Chemscore.Fitness>
21.2634

> <Gold.Chemscore.DG>
-22.3549

> <Gold.Chemscore.ZeroCoef>
-5.4800

> <Gold.Chemscore.Hbond>
2.8983

> <Gold.Chemscore.Metal>
0.0000

> <Gold.Chemscore.Lipo>
103.0301

> <Gold.Chemscore.Internal_Hbond>
0.0000

> <Gold.Chemscore.DEClash>
0.0411

> <Gold.Chemscore.DEInternal>
1.0503

> <Gold.Chemscore.Rot>
1.8984

> <Gold.Chemscore.Internal.Correction>
   9.000000E+99

> <Gold.Chemscore.Hbonds>
donor molecule, donor type, donor heavy atom, donor atom, acceptor molecule, acceptor atom, score
      P1  H  6896  6907       L1    15  0.13
      P1  H  7989  7998       L1    20  0.02
      P1  H 10752 10765       L1    17  0.81

> <Gold.Chemscore.Hbond.Weighted>
-9.6802

> <Gold.Chemscore.Metal.Weighted>
-0.0000

> <Gold.Chemscore.Lipo.Weighted>
-12.0545

> <Gold.Chemscore.Internal_Hbond.Weighted>
0.0000

> <Gold.Chemscore.DEClash.Weighted>
0.0411

> <Gold.Chemscore.DEInternal.Weighted>
1.0503

> <Gold.Chemscore.Rot.Weighted>
4.8598

> <Gold.Chemscore.Internal.Correction.Weighted>
   9.000000E+99

> <Gold.Protein.RotatedTorsions>
[ 6907 6896 6895 6894 ] final   -2.18 input  -60.11 | X-H torsion
[ 7974 7965 7964 7962 ] final   26.55 input  175.53 | X-H torsion
[ 8008 7997 7996 7995 ] final    3.85 input   59.86 | X-H torsion
[ 10167 10162 10161 10158 ] final  154.65 input  -65.29 | X-H torsion
[ 10718 10713 10712 10709 ] final  -93.61 input   66.30 | X-H torsion
[ 10763 10752 10751 10750 ] final -157.68 input  -60.55 | X-H torsion
[ 11005 11000 10999 10996 ] final  -20.77 input  -57.11 | X-H torsion

> <Gold.Protein.ActiveResidues>
 VAL166  LYS551  ARG553  GLY616  TRP617  ASP618  TYR619  PRO620  LYS621  CYS622 
 ASP623  PHE694  ASN695  SER759  ASP760  ASP761  ALA762  ILE779  LEU786  VAL792 
 PHE793  MET794  SER795  GLU796  ALA797  LYS798  CYS799  TRP800  GLU811  SER814 

> <Gold.Protein.RotatedAtoms>
  151.5341  135.1068  159.9909 H   0  0  0  0  0  0  0  0  0  0  0  0  # atno 6907 bound_to 6896
  152.4565  133.7730  159.6820 H   0  0  0  0  0  0  0  0  0  0  0  0  # atno 6908 bound_to 6896
  150.8511  133.7720  159.3050 H   0  0  0  0  0  0  0  0  0  0  0  0  # atno 6909 bound_to 6896
  146.1831  139.7312  142.8886 H   0  0  0  0  0  0  0  0  0  0  0  0  # atno 7974 bound_to 7965
  154.7087  140.2688  155.6650 H   0  0  0  0  0  0  0  0  0  0  0  0  # atno 8008 bound_to 7997
  156.2788  140.2757  156.1646 H   0  0  0  0  0  0  0  0  0  0  0  0  # atno 8009 bound_to 7997
  155.0664  140.0372  157.2584 H   0  0  0  0  0  0  0  0  0  0  0  0  # atno 8010 bound_to 7997
  139.4823  144.5168  151.7938 H   0  0  0  0  0  0  0  0  0  0  0  0  # atno 10167 bound_to 10162
  156.0016  130.5034  150.5803 H   0  0  0  0  0  0  0  0  0  0  0  0  # atno 10718 bound_to 10713
  154.7617  135.3119  154.8365 H   0  0  0  0  0  0  0  0  0  0  0  0  # atno 10763 bound_to 10752
  153.9124  135.6804  153.4754 H   0  0  0  0  0  0  0  0  0  0  0  0  # atno 10764 bound_to 10752
  153.1219  135.4819  154.9140 H   0  0  0  0  0  0  0  0  0  0  0  0  # atno 10765 bound_to 10752
  140.8497  133.7866  155.9952 H   0  0  0  0  0  0  0  0  0  0  0  0  # atno 11005 bound_to 11000
  145.4018  141.0386  143.3066 LP  0  0  0  0  0  0  0  0  0  0  0  0  # atno 17320 bound_to 7965
  144.8350  139.5566  143.6926 LP  0  0  0  0  0  0  0  0  0  0  0  0  # atno 17321 bound_to 7965
  140.4678  144.1631  150.5914 LP  0  0  0  0  0  0  0  0  0  0  0  0  # atno 17342 bound_to 10162
  140.4415  143.2524  151.9466 LP  0  0  0  0  0  0  0  0  0  0  0  0  # atno 17343 bound_to 10162
  157.3684  131.0761  151.1578 LP  0  0  0  0  0  0  0  0  0  0  0  0  # atno 17370 bound_to 10713
  157.2340  130.6538  149.5861 LP  0  0  0  0  0  0  0  0  0  0  0  0  # atno 17371 bound_to 10713
  140.8804  134.2618  157.5147 LP  0  0  0  0  0  0  0  0  0  0  0  0  # atno 17394 bound_to 11000
  139.8704  134.9612  156.4389 LP  0  0  0  0  0  0  0  0  0  0  0  0  # atno 17395 bound_to 11000

$$$$
