AV-unprocessed.smi:1349|AV-procd|sdf|5519|dock10
  -GOLD-   22720 5103D 1   1.00000     0.00000
 Structure written by MMmdl.
 43 45  0  0  0  0  0  0  0  0  2 V2000
  152.3436  135.7482  156.3465 O   0  0  0  0  0  0  0  0  0  0  0  0
  151.0311  136.0764  155.9425 C   0  0  0  0  0  0  0  0  0  0  0  0
  150.9895  136.3624  154.4345 C   0  0  0  0  0  0  0  0  0  0  0  0
  151.5024  137.7648  154.0699 C   0  0  0  0  0  0  0  0  0  0  0  0
  150.3999  138.7731  154.0902 C   0  0  0  0  0  0  0  0  0  0  0  0
  149.2338  138.6938  153.3891 N   0  3  0  0  0  0  0  0  0  0  0  0
  148.4420  139.8103  153.6609 C   0  0  0  0  0  0  0  0  0  0  0  0
  147.1855  140.1743  153.1867 C   0  0  0  0  0  0  0  0  0  0  0  0
  146.6559  141.3904  153.6667 C   0  0  0  0  0  0  0  0  0  0  0  0
  147.3701  142.1925  154.5807 C   0  0  0  0  0  0  0  0  0  0  0  0
  148.6432  141.8125  155.0548 C   0  0  0  0  0  0  0  0  0  0  0  0
  149.1581  140.6080  154.5765 C   0  0  0  0  0  0  0  0  0  0  0  0
  150.3559  139.9269  154.8173 N   0  0  0  0  0  0  0  0  0  0  0  0
  151.3396  140.5110  155.7409 C   0  0  0  0  0  0  0  0  0  0  0  0
  150.7987  140.6144  157.1740 C   0  0  0  0  0  0  0  0  0  0  0  0
  151.3310  141.7819  157.7859 O   0  0  0  0  0  0  0  0  0  0  0  0
  152.2975  141.6318  158.7560 C   0  0  0  0  0  0  0  0  0  0  0  0
  152.6790  142.7920  159.4612 C   0  0  0  0  0  0  0  0  0  0  0  0
  153.6570  142.7317  160.4726 C   0  0  0  0  0  0  0  0  0  0  0  0
  154.2668  141.5036  160.7886 C   0  0  0  0  0  0  0  0  0  0  0  0
  153.8976  140.3385  160.0911 C   0  0  0  0  0  0  0  0  0  0  0  0
  152.9189  140.3990  159.0794 C   0  0  0  0  0  0  0  0  0  0  0  0
  152.3141  135.4244  157.2340 H   0  0  0  0  0  0  0  0  0  0  0  0
  150.3534  135.2631  156.2041 H   0  0  0  0  0  0  0  0  0  0  0  0
  150.7093  136.9569  156.4992 H   0  0  0  0  0  0  0  0  0  0  0  0
  151.5991  135.6184  153.9203 H   0  0  0  0  0  0  0  0  0  0  0  0
  149.9714  136.2278  154.0663 H   0  0  0  0  0  0  0  0  0  0  0  0
  152.2838  138.0789  154.7623 H   0  0  0  0  0  0  0  0  0  0  0  0
  151.9543  137.7538  153.0775 H   0  0  0  0  0  0  0  0  0  0  0  0
  146.6378  139.5621  152.4854 H   0  0  0  0  0  0  0  0  0  0  0  0
  145.6832  141.7146  153.3263 H   0  0  0  0  0  0  0  0  0  0  0  0
  146.9332  143.1186  154.9254 H   0  0  0  0  0  0  0  0  0  0  0  0
  149.1833  142.4345  155.7532 H   0  0  0  0  0  0  0  0  0  0  0  0
  152.2543  139.9186  155.7069 H   0  0  0  0  0  0  0  0  0  0  0  0
  151.6001  141.5020  155.3688 H   0  0  0  0  0  0  0  0  0  0  0  0
  149.7089  140.6632  157.1523 H   0  0  0  0  0  0  0  0  0  0  0  0
  151.0857  139.7259  157.7382 H   0  0  0  0  0  0  0  0  0  0  0  0
  152.2161  143.7388  159.2242 H   0  0  0  0  0  0  0  0  0  0  0  0
  153.9392  143.6281  161.0051 H   0  0  0  0  0  0  0  0  0  0  0  0
  155.0168  141.4555  161.5644 H   0  0  0  0  0  0  0  0  0  0  0  0
  154.3657  139.3955  160.3320 H   0  0  0  0  0  0  0  0  0  0  0  0
  152.6633  139.4850  158.5654 H   0  0  0  0  0  0  0  0  0  0  0  0
  149.0012  137.9311  152.7663 H   0  0  0  0  0  0  0  0  0  0  0  0
  1  2  1  0  0  0  0
  1 23  1  0  0  0  0
  2  3  1  0  0  0  0
  2 24  1  0  0  0  0
  2 25  1  0  0  0  0
  3  4  1  0  0  0  0
  3 26  1  0  0  0  0
  3 27  1  0  0  0  0
  4  5  1  0  0  0  0
  4 28  1  0  0  0  0
  4 29  1  0  0  0  0
  5 13  1  0  0  0  0
  5  6  2  0  0  0  0
  6  7  1  0  0  0  0
  6 43  1  0  0  0  0
  7 12  2  0  0  0  0
  7  8  1  0  0  0  0
  8  9  2  0  0  0  0
  8 30  1  0  0  0  0
  9 10  1  0  0  0  0
  9 31  1  0  0  0  0
 10 11  2  0  0  0  0
 10 32  1  0  0  0  0
 11 12  1  0  0  0  0
 11 33  1  0  0  0  0
 12 13  1  0  0  0  0
 13 14  1  0  0  0  0
 14 15  1  0  0  0  0
 14 34  1  0  0  0  0
 14 35  1  0  0  0  0
 15 16  1  0  0  0  0
 15 36  1  0  0  0  0
 15 37  1  0  0  0  0
 16 17  1  0  0  0  0
 17 22  1  0  0  0  0
 17 18  2  0  0  0  0
 18 19  1  0  0  0  0
 18 38  1  0  0  0  0
 19 20  2  0  0  0  0
 19 39  1  0  0  0  0
 20 21  1  0  0  0  0
 20 40  1  0  0  0  0
 21 22  2  0  0  0  0
 21 41  1  0  0  0  0
 22 42  1  0  0  0  0
M  CHG  1   6   1
M  END
> <s_m_source_file>
AV-unprocessed.smi

> <i_m_source_file_index>
1349

> <i_lp_mmshare_version>
43012

> <i_f3d_flags>
0

> <s_epik_input>
W09IXVtDSDJdW0NIMl1bQ0gyXWMobjEpbihjKGMxMilbY0hdW2NIXVtjSF1bY0hdMilbQ0gyXVtDSDJdT2MzW2NIXVtjSF1bY0hdW2NIXVtjSF0z

> <s_epik_cmdline>
J2VwaWtfcHl0aG9uJywgJy1waCcsICc3LjAnLCAnLXRuJywgJzgnLCAnLW1hJywgJzIwMCcsICctbWV0YWxfYmluZGluZycsICctaW1hZScsICc8aW5maWxlLm1hZT4nLCAnLW9tYWUnLCAnPG91dGZpbGUubWFlPic=

> <r_lp_tautomer_probability>
1

> <r_epik_Ionization_Penalty>
0.856072

> <r_epik_Ionization_Penalty_Charging>
0.856072

> <r_epik_Ionization_Penalty_Neutral>
1.64909e-07

> <r_epik_State_Penalty>
0.892118

> <r_epik_Charging_Adjusted_Penalty>
1.74819

> <i_epik_Tot_Q>
1

> <i_epik_Tot_abs_Q>
1

> <r_epik_Metal_State_Penalty>
4.83641

> <b_epik_Metal_Only>
0

> <s_lp_Force_Field>
OPLS_2005

> <r_lp_Energy>
19.1857

> <b_lp_Chiralities_Consistent>
1

> <s_lp_Variant>
AV-unprocessed.smi:1349-2

> <Gold.Version>
5.8.1

> <Gold.Id.Protein>
6NUR|6NUR_protein|mol2

> <Gold.PLP.Fitness>
55.2257

> <Gold.PLP.PLP>
-48.0148

> <Gold.PLP.part.hbond>
-3.0000

> <Gold.PLP.part.metal>
0.0000

> <Gold.PLP.part.buried>
2.9277

> <Gold.PLP.part.nonpolar>
-46.8425

> <Gold.PLP.part.repulsive>
0.1323

> <Gold.PLP.ligand.clash>
0.0000

> <Gold.PLP.ligand.torsion>
0.9167

> <Gold.PLP.Chemscore.Hbond>
3.0000

> <Gold.PLP.Chemscore.CHOScore>
0.0000

> <Gold.PLP.Chemscore.Metal>
0.0000

> <Gold.Chemscore.Hbonds>
donor molecule, donor type, donor heavy atom, donor atom, acceptor molecule, acceptor atom, score
      L1  H     6    43       P1  7948  2.00
      P1  H 10752 10763       L1     1  0.99

> <Gold.PLP.Chemscore.Internal.Correction>
0.0444

> <Gold.Rescore>
     Score         DG    S(hbond)    S(metal)    S(lipo)     H(rot)  DE(clash)    DE(int)     intcor
     17.50     -20.60       1.77        0.00     133.59       2.51       1.96       1.14       ----

> <Gold.Chemscore.Fitness>
17.4973

> <Gold.Chemscore.DG>
-20.5963

> <Gold.Chemscore.ZeroCoef>
-5.4800

> <Gold.Chemscore.Hbond>
1.7717

> <Gold.Chemscore.Metal>
0.0000

> <Gold.Chemscore.Lipo>
133.5909

> <Gold.Chemscore.Internal_Hbond>
0.0000

> <Gold.Chemscore.DEClash>
1.9633

> <Gold.Chemscore.DEInternal>
1.1357

> <Gold.Chemscore.Rot>
2.5123

> <Gold.Chemscore.Internal.Correction>
   9.000000E+99

> <Gold.Chemscore.Hbonds>
donor molecule, donor type, donor heavy atom, donor atom, acceptor molecule, acceptor atom, score
      L1  H     6    43       P1  7948  1.00
      P1  H 10752 10763       L1     1  0.86

> <Gold.Chemscore.Hbond.Weighted>
-5.9175

> <Gold.Chemscore.Metal.Weighted>
-0.0000

> <Gold.Chemscore.Lipo.Weighted>
-15.6301

> <Gold.Chemscore.Internal_Hbond.Weighted>
0.0000

> <Gold.Chemscore.DEClash.Weighted>
1.9633

> <Gold.Chemscore.DEInternal.Weighted>
1.1357

> <Gold.Chemscore.Rot.Weighted>
6.4314

> <Gold.Chemscore.Internal.Correction.Weighted>
   9.000000E+99

> <Gold.Protein.RotatedTorsions>
[ 6907 6896 6895 6894 ] final  -32.31 input  -60.11 | X-H torsion
[ 7974 7965 7964 7962 ] final  -58.61 input  175.53 | X-H torsion
[ 8008 7997 7996 7995 ] final   79.22 input   59.86 | X-H torsion
[ 10167 10162 10161 10158 ] final   68.92 input  -65.29 | X-H torsion
[ 10718 10713 10712 10709 ] final   41.95 input   66.30 | X-H torsion
[ 10763 10752 10751 10750 ] final  105.20 input  -60.55 | X-H torsion
[ 11005 11000 10999 10996 ] final   28.39 input  -57.11 | X-H torsion

> <Gold.Protein.ActiveResidues>
 VAL166  LYS551  ARG553  GLY616  TRP617  ASP618  TYR619  PRO620  LYS621  CYS622 
 ASP623  PHE694  ASN695  SER759  ASP760  ASP761  ALA762  ILE779  LEU786  VAL792 
 PHE793  MET794  SER795  GLU796  ALA797  LYS798  CYS799  TRP800  GLU811  SER814 

> <Gold.Protein.RotatedAtoms>
  151.0804  134.9855  159.8352 H   0  0  0  0  0  0  0  0  0  0  0  0  # atno 6907 bound_to 6896
  152.5419  134.2188  159.8789 H   0  0  0  0  0  0  0  0  0  0  0  0  # atno 6908 bound_to 6896
  151.2218  133.4454  159.2634 H   0  0  0  0  0  0  0  0  0  0  0  0  # atno 6909 bound_to 6896
  145.8373  140.8440  143.0052 H   0  0  0  0  0  0  0  0  0  0  0  0  # atno 7974 bound_to 7965
  155.8667  140.3451  155.5793 H   0  0  0  0  0  0  0  0  0  0  0  0  # atno 8008 bound_to 7997
  155.7873  140.0867  157.2047 H   0  0  0  0  0  0  0  0  0  0  0  0  # atno 8009 bound_to 7997
  154.4015  140.1489  156.3109 H   0  0  0  0  0  0  0  0  0  0  0  0  # atno 8010 bound_to 7997
  140.0734  144.5133  150.7211 H   0  0  0  0  0  0  0  0  0  0  0  0  # atno 10167 bound_to 10162
  157.3993  130.7851  149.7335 H   0  0  0  0  0  0  0  0  0  0  0  0  # atno 10718 bound_to 10713
  153.3762  135.3918  155.1824 H   0  0  0  0  0  0  0  0  0  0  0  0  # atno 10763 bound_to 10752
  154.8701  135.3714  154.4915 H   0  0  0  0  0  0  0  0  0  0  0  0  # atno 10764 bound_to 10752
  153.5387  135.7085  153.5708 H   0  0  0  0  0  0  0  0  0  0  0  0  # atno 10765 bound_to 10752
  140.3161  134.2596  155.7725 H   0  0  0  0  0  0  0  0  0  0  0  0  # atno 11005 bound_to 11000
  144.6735  140.0760  143.7471 LP  0  0  0  0  0  0  0  0  0  0  0  0  # atno 17320 bound_to 7965
  145.9504  139.2730  143.1215 LP  0  0  0  0  0  0  0  0  0  0  0  0  # atno 17321 bound_to 7965
  140.7114  143.2508  151.4569 LP  0  0  0  0  0  0  0  0  0  0  0  0  # atno 17342 bound_to 10162
  139.5822  144.1683  152.1983 LP  0  0  0  0  0  0  0  0  0  0  0  0  # atno 17343 bound_to 10162
  155.9819  130.4015  150.3447 LP  0  0  0  0  0  0  0  0  0  0  0  0  # atno 17370 bound_to 10713
  157.1573  131.0336  151.2857 LP  0  0  0  0  0  0  0  0  0  0  0  0  # atno 17371 bound_to 10713
  141.2097  133.7740  156.9978 LP  0  0  0  0  0  0  0  0  0  0  0  0  # atno 17394 bound_to 11000
  140.0983  134.9551  157.1883 LP  0  0  0  0  0  0  0  0  0  0  0  0  # atno 17395 bound_to 11000

$$$$
