AV-unprocessed.smi:3298|AV-procd|sdf|12646|dock4
  -GOLD-   2272018583D 1   1.00000     0.00000
 Structure written by MMmdl.
 36 37  0  0  0  0  0  0  0  0  2 V2000
  146.2183  143.2232  154.0823 C   0  0  0  0  0  0  0  0  0  0  0  0
  147.1528  142.0319  154.0911 C   0  0  0  0  0  0  0  0  0  0  0  0
  146.7877  140.7837  153.5421 C   0  0  0  0  0  0  0  0  0  0  0  0
  147.7130  139.7083  153.5766 C   0  0  0  0  0  0  0  0  0  0  0  0
  147.4530  138.4059  153.0652 N   0  0  0  0  0  0  0  0  0  0  0  0
  146.2997  137.7143  153.0422 C   0  0  0  0  0  0  0  0  0  0  0  0
  145.2181  138.1131  153.4724 O   0  0  0  0  0  0  0  0  0  0  0  0
  146.4673  136.5128  152.4708 N   0  0  0  0  0  0  0  0  0  0  0  0
  145.4173  135.5144  152.2917 C   0  0  2  0  0  0  0  0  0  0  0  0
  145.8568  134.1600  152.7812 C   0  0  0  0  0  0  0  0  0  0  0  0
  145.8468  133.2390  151.8203 C   0  0  0  0  0  0  0  0  0  0  0  0
  145.4218  133.7901  150.4842 C   0  0  1  0  0  0  0  0  0  0  0  0
  144.2426  133.0047  149.8858 C   0  0  0  0  0  0  0  0  0  0  0  0
  143.7879  133.6295  148.7041 O   0  0  0  0  0  0  0  0  0  0  0  0
  145.0983  135.2760  150.7949 C   0  0  0  0  0  0  0  0  0  0  0  0
  148.9711  139.9238  154.1819 C   0  0  0  0  0  0  0  0  0  0  0  0
  149.2808  141.1911  154.7154 C   0  0  0  0  0  0  0  0  0  0  0  0
  148.3728  142.1877  154.6499 N   0  3  0  0  0  0  0  0  0  0  0  0
  144.5115  135.8106  152.8240 H   0  0  0  0  0  0  0  0  0  0  0  0
  146.2825  133.7278  149.8167 H   0  0  0  0  0  0  0  0  0  0  0  0
  145.2696  142.9759  153.6049 H   0  0  0  0  0  0  0  0  0  0  0  0
  146.6665  144.0539  153.5362 H   0  0  0  0  0  0  0  0  0  0  0  0
  146.0108  143.5514  155.1012 H   0  0  0  0  0  0  0  0  0  0  0  0
  145.8028  140.6774  153.1156 H   0  0  0  0  0  0  0  0  0  0  0  0
  148.2403  137.9547  152.6229 H   0  0  0  0  0  0  0  0  0  0  0  0
  147.3883  136.2646  152.1402 H   0  0  0  0  0  0  0  0  0  0  0  0
  146.1335  133.9814  153.8099 H   0  0  0  0  0  0  0  0  0  0  0  0
  146.1245  132.2037  151.9521 H   0  0  0  0  0  0  0  0  0  0  0  0
  144.5487  131.9870  149.6415 H   0  0  0  0  0  0  0  0  0  0  0  0
  143.4190  132.9324  150.5974 H   0  0  0  0  0  0  0  0  0  0  0  0
  144.5390  133.9129  148.2052 H   0  0  0  0  0  0  0  0  0  0  0  0
  144.0466  135.4960  150.6058 H   0  0  0  0  0  0  0  0  0  0  0  0
  145.6739  135.9358  150.1439 H   0  0  0  0  0  0  0  0  0  0  0  0
  149.6988  139.1269  154.2359 H   0  0  0  0  0  0  0  0  0  0  0  0
  150.2201  141.4355  155.1896 H   0  0  0  0  0  0  0  0  0  0  0  0
  148.6170  143.0975  155.0421 H   0  0  0  0  0  0  0  0  0  0  0  0
  1  2  1  0  0  0  0
  1 21  1  0  0  0  0
  1 22  1  0  0  0  0
  1 23  1  0  0  0  0
  2 18  1  0  0  0  0
  2  3  2  0  0  0  0
  3  4  1  0  0  0  0
  3 24  1  0  0  0  0
  4  5  1  0  0  0  0
  4 16  2  0  0  0  0
  5  6  1  0  0  0  0
  5 25  1  0  0  0  0
  6  7  2  0  0  0  0
  6  8  1  0  0  0  0
  8  9  1  0  0  0  0
  8 26  1  0  0  0  0
  9 19  1  0  0  0  0
  9 15  1  0  0  0  0
  9 10  1  0  0  0  0
 10 11  2  0  0  0  0
 10 27  1  0  0  0  0
 11 12  1  0  0  0  0
 11 28  1  0  0  0  0
 12 20  1  0  0  0  0
 12 13  1  0  0  0  0
 12 15  1  0  0  0  0
 13 14  1  0  0  0  0
 13 29  1  0  0  0  0
 13 30  1  0  0  0  0
 14 31  1  0  0  0  0
 15 32  1  0  0  0  0
 15 33  1  0  0  0  0
 16 17  1  0  0  0  0
 16 34  1  0  0  0  0
 17 18  2  0  0  0  0
 17 35  1  0  0  0  0
 18 36  1  0  0  0  0
M  CHG  1  18   1
M  END
> <s_m_source_file>
AV-unprocessed.smi

> <i_m_source_file_index>
3298

> <i_lp_mmshare_version>
43012

> <i_f3d_flags>
0

> <s_epik_input>
W0NIM11jMVtjSF1jKFtjSF1bY0hdbjEpW05IXUMoPU8pW05IXVtDQEBIXTJbQ0hdPVtDSF1bQ0BASF0oW0NIMl0yKVtDSDJdW09IXQ==

> <s_epik_cmdline>
J2VwaWtfcHl0aG9uJywgJy1waCcsICc3LjAnLCAnLXRuJywgJzgnLCAnLW1hJywgJzIwMCcsICctbWV0YWxfYmluZGluZycsICctaW1hZScsICc8aW5maWxlLm1hZT4nLCAnLW9tYWUnLCAnPG91dGZpbGUubWFlPic=

> <r_epik_Ionization_Penalty>
0.443901

> <r_epik_Ionization_Penalty_Charging>
0.443881

> <r_epik_Ionization_Penalty_Neutral>
1.94967e-05

> <r_epik_State_Penalty>
0.446172

> <r_epik_Charging_Adjusted_Penalty>
0.890053

> <i_epik_Tot_Q>
1

> <i_epik_Tot_abs_Q>
1

> <r_epik_Metal_State_Penalty>
0.675842

> <b_epik_Metal_Only>
0

> <s_lp_Force_Field>
OPLS_2005

> <r_lp_Energy>
27.4169

> <b_lp_Chiralities_Consistent>
1

> <s_lp_Variant>
AV-unprocessed.smi:3298-7

> <Gold.Version>
5.8.1

> <Gold.Id.Protein>
6NUR|6NUR_protein|mol2

> <Gold.PLP.Fitness>
49.8160

> <Gold.PLP.PLP>
-35.6646

> <Gold.PLP.part.hbond>
-5.1197

> <Gold.PLP.part.metal>
0.0000

> <Gold.PLP.part.buried>
-3.9152

> <Gold.PLP.part.nonpolar>
-28.0326

> <Gold.PLP.part.repulsive>
1.2030

> <Gold.PLP.ligand.clash>
0.0000

> <Gold.PLP.ligand.torsion>
0.3244

> <Gold.PLP.Chemscore.Hbond>
4.9280

> <Gold.PLP.Chemscore.CHOScore>
0.0000

> <Gold.PLP.Chemscore.Metal>
0.0000

> <Gold.Chemscore.Hbonds>
donor molecule, donor type, donor heavy atom, donor atom, acceptor molecule, acceptor atom, score
      L1  H     5    25       P1  7948  0.93
      L1  H     8    26       P1  7948  1.00
      L1  H    14    31       P1  7921  1.00
      L1  H    18    36       P1  8028  2.00

> <Gold.PLP.Chemscore.Internal.Correction>
0.0161

> <Gold.Rescore>
     Score         DG    S(hbond)    S(metal)    S(lipo)     H(rot)  DE(clash)    DE(int)     intcor
     21.87     -22.37       3.82        0.00      74.88       1.81       0.16       0.34       ----

> <Gold.Chemscore.Fitness>
21.8685

> <Gold.Chemscore.DG>
-22.3697

> <Gold.Chemscore.ZeroCoef>
-5.4800

> <Gold.Chemscore.Hbond>
3.8183

> <Gold.Chemscore.Metal>
0.0000

> <Gold.Chemscore.Lipo>
74.8751

> <Gold.Chemscore.Internal_Hbond>
0.0000

> <Gold.Chemscore.DEClash>
0.1566

> <Gold.Chemscore.DEInternal>
0.3445

> <Gold.Chemscore.Rot>
1.8061

> <Gold.Chemscore.Internal.Correction>
   9.000000E+99

> <Gold.Chemscore.Hbonds>
donor molecule, donor type, donor heavy atom, donor atom, acceptor molecule, acceptor atom, score
      L1  H     5    25       P1  7948  0.88
      L1  H     8    26       P1  7948  0.97
      L1  H    14    31       P1  7921  1.00
      L1  H    18    36       P1  8028  1.00

> <Gold.Chemscore.Hbond.Weighted>
-12.7530

> <Gold.Chemscore.Metal.Weighted>
-0.0000

> <Gold.Chemscore.Lipo.Weighted>
-8.7604

> <Gold.Chemscore.Internal_Hbond.Weighted>
0.0000

> <Gold.Chemscore.DEClash.Weighted>
0.1566

> <Gold.Chemscore.DEInternal.Weighted>
0.3445

> <Gold.Chemscore.Rot.Weighted>
4.6237

> <Gold.Chemscore.Internal.Correction.Weighted>
   9.000000E+99

> <Gold.Protein.RotatedTorsions>
[ 6907 6896 6895 6894 ] final -166.41 input  -60.11 | X-H torsion
[ 7974 7965 7964 7962 ] final  140.57 input  175.53 | X-H torsion
[ 8008 7997 7996 7995 ] final -169.42 input   59.86 | X-H torsion
[ 10167 10162 10161 10158 ] final -156.04 input  -65.29 | X-H torsion
[ 10718 10713 10712 10709 ] final -152.89 input   66.30 | X-H torsion
[ 10763 10752 10751 10750 ] final -163.00 input  -60.55 | X-H torsion
[ 11005 11000 10999 10996 ] final   54.86 input  -57.11 | X-H torsion

> <Gold.Protein.ActiveResidues>
 VAL166  LYS551  ARG553  GLY616  TRP617  ASP618  TYR619  PRO620  LYS621  CYS622 
 ASP623  PHE694  ASN695  SER759  ASP760  ASP761  ALA762  ILE779  LEU786  VAL792 
 PHE793  MET794  SER795  GLU796  ALA797  LYS798  CYS799  TRP800  GLU811  SER814 

> <Gold.Protein.RotatedAtoms>
  151.4432  133.3637  159.2784 H   0  0  0  0  0  0  0  0  0  0  0  0  # atno 6907 bound_to 6896
  150.9143  134.8562  159.7457 H   0  0  0  0  0  0  0  0  0  0  0  0  # atno 6908 bound_to 6896
  152.4949  134.4364  159.9581 H   0  0  0  0  0  0  0  0  0  0  0  0  # atno 6909 bound_to 6896
  144.9174  139.5212  143.5679 H   0  0  0  0  0  0  0  0  0  0  0  0  # atno 7974 bound_to 7965
  155.9047  140.1047  157.1324 H   0  0  0  0  0  0  0  0  0  0  0  0  # atno 8008 bound_to 7997
  154.4031  140.1286  156.4545 H   0  0  0  0  0  0  0  0  0  0  0  0  # atno 8009 bound_to 7997
  155.7381  140.3467  155.5093 H   0  0  0  0  0  0  0  0  0  0  0  0  # atno 8010 bound_to 7997
  139.6882  143.9464  152.2372 H   0  0  0  0  0  0  0  0  0  0  0  0  # atno 10167 bound_to 10162
  156.4785  130.8292  151.2519 H   0  0  0  0  0  0  0  0  0  0  0  0  # atno 10718 bound_to 10713
  154.7163  135.3016  154.9119 H   0  0  0  0  0  0  0  0  0  0  0  0  # atno 10763 bound_to 10752
  154.0005  135.6707  153.4763 H   0  0  0  0  0  0  0  0  0  0  0  0  # atno 10764 bound_to 10752
  153.0796  135.5016  154.8391 H   0  0  0  0  0  0  0  0  0  0  0  0  # atno 10765 bound_to 10752
  140.0652  134.5546  155.9107 H   0  0  0  0  0  0  0  0  0  0  0  0  # atno 11005 bound_to 11000
  146.3188  139.8028  142.8962 LP  0  0  0  0  0  0  0  0  0  0  0  0  # atno 17320 bound_to 7965
  145.3352  141.0275  143.3423 LP  0  0  0  0  0  0  0  0  0  0  0  0  # atno 17321 bound_to 7965
  139.9273  144.6763  150.8399 LP  0  0  0  0  0  0  0  0  0  0  0  0  # atno 17342 bound_to 10162
  140.7674  143.3333  151.2364 LP  0  0  0  0  0  0  0  0  0  0  0  0  # atno 17343 bound_to 10162
  157.7485  131.0053  150.3107 LP  0  0  0  0  0  0  0  0  0  0  0  0  # atno 17370 bound_to 10713
  156.3545  130.3836  149.7301 LP  0  0  0  0  0  0  0  0  0  0  0  0  # atno 17371 bound_to 10713
  141.1990  133.6604  156.5820 LP  0  0  0  0  0  0  0  0  0  0  0  0  # atno 17394 bound_to 11000
  140.3709  134.7606  157.4598 LP  0  0  0  0  0  0  0  0  0  0  0  0  # atno 17395 bound_to 11000

$$$$
