AV-unprocessed.smi:2907|AV-procd|sdf|11166|dock6
  -GOLD-   2272016 53D 1   1.00000     0.00000
 Structure written by MMmdl.
 45 46  0  0  0  0  0  0  0  0  1 V2000
  152.1271  144.3485  160.0780 C   0  0  0  0  0  0  0  0  0  0  0  0
  152.0896  143.0251  160.8563 C   0  0  0  0  0  0  0  0  0  0  0  0
  152.5540  141.8029  160.0393 C   0  0  0  0  0  0  0  0  0  0  0  0
  154.0771  141.5932  160.1527 C   0  0  0  0  0  0  0  0  0  0  0  0
  154.5422  141.1449  161.5467 C   0  0  0  0  0  0  0  0  0  0  0  0
  152.1845  141.9554  158.6329 N   0  0  0  0  0  0  0  0  0  0  0  0
  150.9495  142.1892  158.1599 C   0  0  0  0  0  0  0  0  0  0  0  0
  149.9698  142.3947  158.8756 O   0  0  0  0  0  0  0  0  0  0  0  0
  150.7924  142.1632  156.6391 C   0  0  0  0  0  0  0  0  0  0  0  0
  151.1115  140.8454  156.1115 N   0  0  0  0  0  0  0  0  0  0  0  0
  152.3226  140.2830  156.3492 N   0  0  0  0  0  0  0  0  0  0  0  0
  152.3029  139.1031  155.8015 N   0  0  0  0  0  0  0  0  0  0  0  0
  151.0880  138.8522  155.1942 N   0  0  0  0  0  0  0  0  0  0  0  0
  150.3909  139.9638  155.4001 C   0  0  0  0  0  0  0  0  0  0  0  0
  148.9699  140.1856  154.9668 C   0  0  0  0  0  0  0  0  0  0  0  0
  148.4811  139.0748  154.0173 C   0  0  0  0  0  0  0  0  0  0  0  0
  147.0176  139.2947  153.6024 C   0  0  0  0  0  0  0  0  0  0  0  0
  146.8177  140.6849  152.9781 C   0  0  0  0  0  0  0  0  0  0  0  0
  147.2955  141.7949  153.9280 C   0  0  0  0  0  0  0  0  0  0  0  0
  148.7600  141.5810  154.3451 C   0  0  0  0  0  0  0  0  0  0  0  0
  151.7291  145.1632  160.6830 H   0  0  0  0  0  0  0  0  0  0  0  0
  151.5288  144.2865  159.1687 H   0  0  0  0  0  0  0  0  0  0  0  0
  153.1442  144.6184  159.7935 H   0  0  0  0  0  0  0  0  0  0  0  0
  152.6970  143.1201  161.7574 H   0  0  0  0  0  0  0  0  0  0  0  0
  151.0678  142.8572  161.1981 H   0  0  0  0  0  0  0  0  0  0  0  0
  152.0722  140.9175  160.4579 H   0  0  0  0  0  0  0  0  0  0  0  0
  154.4046  140.8603  159.4142 H   0  0  0  0  0  0  0  0  0  0  0  0
  154.5864  142.5241  159.9010 H   0  0  0  0  0  0  0  0  0  0  0  0
  155.6282  141.0596  161.5822 H   0  0  0  0  0  0  0  0  0  0  0  0
  154.1292  140.1724  161.8168 H   0  0  0  0  0  0  0  0  0  0  0  0
  154.2408  141.8622  162.3103 H   0  0  0  0  0  0  0  0  0  0  0  0
  152.9212  141.8068  157.9581 H   0  0  0  0  0  0  0  0  0  0  0  0
  149.7733  142.4257  156.3535 H   0  0  0  0  0  0  0  0  0  0  0  0
  151.4510  142.9077  156.1888 H   0  0  0  0  0  0  0  0  0  0  0  0
  148.3406  140.1462  155.8557 H   0  0  0  0  0  0  0  0  0  0  0  0
  149.1114  139.0420  153.1275 H   0  0  0  0  0  0  0  0  0  0  0  0
  148.5773  138.1028  154.5017 H   0  0  0  0  0  0  0  0  0  0  0  0
  146.7115  138.5216  152.8972 H   0  0  0  0  0  0  0  0  0  0  0  0
  146.3721  139.1898  154.4753 H   0  0  0  0  0  0  0  0  0  0  0  0
  147.3676  140.7456  152.0381 H   0  0  0  0  0  0  0  0  0  0  0  0
  145.7661  140.8339  152.7316 H   0  0  0  0  0  0  0  0  0  0  0  0
  147.1845  142.7678  153.4483 H   0  0  0  0  0  0  0  0  0  0  0  0
  146.6618  141.8137  154.8156 H   0  0  0  0  0  0  0  0  0  0  0  0
  149.0555  142.3544  155.0552 H   0  0  0  0  0  0  0  0  0  0  0  0
  149.4032  141.7003  153.4722 H   0  0  0  0  0  0  0  0  0  0  0  0
  1  2  1  0  0  0  0
  1 21  1  0  0  0  0
  1 22  1  0  0  0  0
  1 23  1  0  0  0  0
  2  3  1  0  0  0  0
  2 24  1  0  0  0  0
  2 25  1  0  0  0  0
  3  4  1  0  0  0  0
  3  6  1  0  0  0  0
  3 26  1  0  0  0  0
  4  5  1  0  0  0  0
  4 27  1  0  0  0  0
  4 28  1  0  0  0  0
  5 29  1  0  0  0  0
  5 30  1  0  0  0  0
  5 31  1  0  0  0  0
  6  7  1  0  0  0  0
  6 32  1  0  0  0  0
  7  8  2  0  0  0  0
  7  9  1  0  0  0  0
  9 10  1  0  0  0  0
  9 33  1  0  0  0  0
  9 34  1  0  0  0  0
 10 14  1  0  0  0  0
 10 11  1  0  0  0  0
 11 12  2  0  0  0  0
 12 13  1  0  0  0  0
 13 14  2  0  0  0  0
 14 15  1  0  0  0  0
 15 20  1  0  0  0  0
 15 16  1  0  0  0  0
 15 35  1  0  0  0  0
 16 17  1  0  0  0  0
 16 36  1  0  0  0  0
 16 37  1  0  0  0  0
 17 18  1  0  0  0  0
 17 38  1  0  0  0  0
 17 39  1  0  0  0  0
 18 19  1  0  0  0  0
 18 40  1  0  0  0  0
 18 41  1  0  0  0  0
 19 20  1  0  0  0  0
 19 42  1  0  0  0  0
 19 43  1  0  0  0  0
 20 44  1  0  0  0  0
 20 45  1  0  0  0  0
M  END
> <s_m_source_file>
AV-unprocessed.smi

> <i_m_source_file_index>
2907

> <i_lp_mmshare_version>
43012

> <i_f3d_flags>
0

> <s_epik_input>
W0NIM11bQ0gyXVtDSF0oW0NIMl1bQ0gzXSlbTkhdQyg9TylbQ0gyXW4xbm5uYzFbQ0hdMltDSDJdW0NIMl1bQ0gyXVtDSDJdW0NIMl0y

> <s_epik_cmdline>
J2VwaWtfcHl0aG9uJywgJy1waCcsICc3LjAnLCAnLXRuJywgJzgnLCAnLW1hJywgJzIwMCcsICctbWV0YWxfYmluZGluZycsICctaW1hZScsICc8aW5maWxlLm1hZT4nLCAnLW9tYWUnLCAnPG91dGZpbGUubWFlPic=

> <r_lp_tautomer_probability>
1

> <r_epik_Ionization_Penalty>
4.92512e-07

> <r_epik_Ionization_Penalty_Charging>
0

> <r_epik_Ionization_Penalty_Neutral>
4.92512e-07

> <r_epik_State_Penalty>
-0

> <r_epik_Charging_Adjusted_Penalty>
0

> <i_epik_Tot_Q>
0

> <i_epik_Tot_abs_Q>
0

> <r_epik_Metal_State_Penalty>
-0

> <b_epik_Metal_Only>
0

> <s_lp_Force_Field>
OPLS_2005

> <r_lp_Energy>
10.8377

> <b_lp_Chiralities_Consistent>
1

> <s_lp_Variant>
AV-unprocessed.smi:2907-1

> <Gold.Version>
5.8.1

> <Gold.Id.Protein>
6NUR|6NUR_protein|mol2

> <Gold.PLP.Fitness>
43.9744

> <Gold.PLP.PLP>
-42.2263

> <Gold.PLP.part.hbond>
-1.7400

> <Gold.PLP.part.metal>
0.0000

> <Gold.PLP.part.buried>
-2.9460

> <Gold.PLP.part.nonpolar>
-36.7473

> <Gold.PLP.part.repulsive>
0.1920

> <Gold.PLP.ligand.clash>
0.0000

> <Gold.PLP.ligand.torsion>
0.6750

> <Gold.PLP.Chemscore.Hbond>
1.0000

> <Gold.PLP.Chemscore.CHOScore>
0.0000

> <Gold.PLP.Chemscore.Metal>
0.0000

> <Gold.Chemscore.Hbonds>
donor molecule, donor type, donor heavy atom, donor atom, acceptor molecule, acceptor atom, score
      P1  H  7997  8010       L1    11  0.39

> <Gold.PLP.Chemscore.Internal.Correction>
0.0980

> <Gold.Rescore>
     Score         DG    S(hbond)    S(metal)    S(lipo)     H(rot)  DE(clash)    DE(int)     intcor
     12.21     -15.24       0.85        0.00      98.43       1.79       0.14       2.89       ----

> <Gold.Chemscore.Fitness>
12.2124

> <Gold.Chemscore.DG>
-15.2361

> <Gold.Chemscore.ZeroCoef>
-5.4800

> <Gold.Chemscore.Hbond>
0.8483

> <Gold.Chemscore.Metal>
0.0000

> <Gold.Chemscore.Lipo>
98.4313

> <Gold.Chemscore.Internal_Hbond>
0.0000

> <Gold.Chemscore.DEClash>
0.1350

> <Gold.Chemscore.DEInternal>
2.8887

> <Gold.Chemscore.Rot>
1.7944

> <Gold.Chemscore.Internal.Correction>
   9.000000E+99

> <Gold.Chemscore.Hbonds>
donor molecule, donor type, donor heavy atom, donor atom, acceptor molecule, acceptor atom, score
      P1  H  7997  8010       L1    11  0.01

> <Gold.Chemscore.Hbond.Weighted>
-2.8334

> <Gold.Chemscore.Metal.Weighted>
-0.0000

> <Gold.Chemscore.Lipo.Weighted>
-11.5165

> <Gold.Chemscore.Internal_Hbond.Weighted>
0.0000

> <Gold.Chemscore.DEClash.Weighted>
0.1350

> <Gold.Chemscore.DEInternal.Weighted>
2.8887

> <Gold.Chemscore.Rot.Weighted>
4.5938

> <Gold.Chemscore.Internal.Correction.Weighted>
   9.000000E+99

> <Gold.Protein.RotatedTorsions>
[ 6907 6896 6895 6894 ] final   62.94 input  -60.11 | X-H torsion
[ 7974 7965 7964 7962 ] final  -44.44 input  175.53 | X-H torsion
[ 8008 7997 7996 7995 ] final   62.05 input   59.86 | X-H torsion
[ 10167 10162 10161 10158 ] final -169.81 input  -65.29 | X-H torsion
[ 10718 10713 10712 10709 ] final  120.67 input   66.30 | X-H torsion
[ 10763 10752 10751 10750 ] final  -51.68 input  -60.55 | X-H torsion
[ 11005 11000 10999 10996 ] final -119.75 input  -57.11 | X-H torsion

> <Gold.Protein.ActiveResidues>
 VAL166  LYS551  ARG553  GLY616  TRP617  ASP618  TYR619  PRO620  LYS621  CYS622 
 ASP623  PHE694  ASN695  SER759  ASP760  ASP761  ALA762  ILE779  LEU786  VAL792 
 PHE793  MET794  SER795  GLU796  ALA797  LYS798  CYS799  TRP800  GLU811  SER814 

> <Gold.Protein.RotatedAtoms>
  152.4213  134.5950  159.9984 H   0  0  0  0  0  0  0  0  0  0  0  0  # atno 6907 bound_to 6896
  151.6099  133.3342  159.3073 H   0  0  0  0  0  0  0  0  0  0  0  0  # atno 6908 bound_to 6896
  150.8101  134.7289  159.6746 H   0  0  0  0  0  0  0  0  0  0  0  0  # atno 6909 bound_to 6896
  145.9920  140.7170  142.9312 H   0  0  0  0  0  0  0  0  0  0  0  0  # atno 7974 bound_to 7965
  155.6082  140.3494  155.4614 H   0  0  0  0  0  0  0  0  0  0  0  0  # atno 8008 bound_to 7997
  156.0175  140.1246  157.0415 H   0  0  0  0  0  0  0  0  0  0  0  0  # atno 8009 bound_to 7997
  154.4303  140.1069  156.5903 H   0  0  0  0  0  0  0  0  0  0  0  0  # atno 8010 bound_to 7997
  139.5900  144.1234  152.1622 H   0  0  0  0  0  0  0  0  0  0  0  0  # atno 10167 bound_to 10162
  157.5874  131.1068  150.8067 H   0  0  0  0  0  0  0  0  0  0  0  0  # atno 10718 bound_to 10713
  154.1305  135.6521  153.4921 H   0  0  0  0  0  0  0  0  0  0  0  0  # atno 10763 bound_to 10752
  153.0197  135.5291  154.7006 H   0  0  0  0  0  0  0  0  0  0  0  0  # atno 10764 bound_to 10752
  154.6239  135.2968  155.0264 H   0  0  0  0  0  0  0  0  0  0  0  0  # atno 10765 bound_to 10752
  141.0193  134.0148  157.3305 H   0  0  0  0  0  0  0  0  0  0  0  0  # atno 11005 bound_to 11000
  144.6892  140.3086  143.7251 LP  0  0  0  0  0  0  0  0  0  0  0  0  # atno 17320 bound_to 7965
  145.7615  139.1826  143.2264 LP  0  0  0  0  0  0  0  0  0  0  0  0  # atno 17321 bound_to 7965
  140.0806  144.5703  150.7125 LP  0  0  0  0  0  0  0  0  0  0  0  0  # atno 17342 bound_to 10162
  140.7165  143.2549  151.4418 LP  0  0  0  0  0  0  0  0  0  0  0  0  # atno 17343 bound_to 10162
  156.8498  130.5076  149.5313 LP  0  0  0  0  0  0  0  0  0  0  0  0  # atno 17370 bound_to 10713
  156.0924  130.5906  150.9756 LP  0  0  0  0  0  0  0  0  0  0  0  0  # atno 17371 bound_to 10713
  139.9136  135.0194  156.7792 LP  0  0  0  0  0  0  0  0  0  0  0  0  # atno 17394 bound_to 11000
  140.6601  133.9653  155.7800 LP  0  0  0  0  0  0  0  0  0  0  0  0  # atno 17395 bound_to 11000

$$$$
