AV-unprocessed.smi:2445|AV-procd|sdf|9633|dock7
  -GOLD-   2272013263D 1   1.00000     0.00000
 Structure written by MMmdl.
 40 41  0  0  0  0  0  0  0  0  1 V2000
  144.1060  133.0077  149.6375 C   0  0  0  0  0  0  0  0  0  0  0  0
  145.0628  133.1429  150.7729 C   0  0  0  0  0  0  0  0  0  0  0  0
  145.1416  134.1627  151.6885 C   0  0  0  0  0  0  0  0  0  0  0  0
  146.1538  133.9944  152.6359 N   0  0  0  0  0  0  0  0  0  0  0  0
  146.8424  132.8644  152.4542 C   0  0  0  0  0  0  0  0  0  0  0  0
  147.9847  132.4436  153.3300 C   0  0  2  0  0  0  0  0  0  0  0  0
  147.8571  130.9750  153.7586 C   0  0  0  0  0  0  0  0  0  0  0  0
  148.1940  133.3854  154.5321 C   0  0  0  0  0  0  0  0  0  0  0  0
  148.5362  134.7373  154.1037 N   0  0  0  0  0  0  0  0  0  0  0  0
  148.9244  135.7197  154.9262 C   0  0  0  0  0  0  0  0  0  0  0  0
  149.0621  135.5868  156.1423 O   0  0  0  0  0  0  0  0  0  0  0  0
  149.1393  136.8642  154.2645 N   0  0  0  0  0  0  0  0  0  0  0  0
  149.5590  138.1202  154.8784 C   0  0  2  0  0  0  0  0  0  0  0  0
  148.5937  139.2441  154.5641 C   0  0  0  0  0  0  0  0  0  0  0  0
  149.4747  140.4733  154.7504 C   0  0  0  0  0  0  0  0  0  0  0  0
  150.7783  140.0757  154.3418 O   0  0  0  0  0  0  0  0  0  0  0  0
  150.8683  138.6542  154.2788 C   0  0  1  0  0  0  0  0  0  0  0  0
  152.1339  138.1760  155.0010 C   0  0  0  0  0  0  0  0  0  0  0  0
  146.2759  131.9268  151.0741 S   0  0  0  0  0  0  0  0  0  0  0  0
  143.3886  133.8287  149.6279 H   0  0  0  0  0  0  0  0  0  0  0  0
  143.5476  132.0742  149.7108 H   0  0  0  0  0  0  0  0  0  0  0  0
  144.6344  133.0116  148.6842 H   0  0  0  0  0  0  0  0  0  0  0  0
  144.5196  135.0442  151.7399 H   0  0  0  0  0  0  0  0  0  0  0  0
  148.8876  132.5108  152.7206 H   0  0  0  0  0  0  0  0  0  0  0  0
  147.7908  130.3178  152.8910 H   0  0  0  0  0  0  0  0  0  0  0  0
  146.9660  130.8148  154.3664 H   0  0  0  0  0  0  0  0  0  0  0  0
  148.7204  130.6609  154.3456 H   0  0  0  0  0  0  0  0  0  0  0  0
  147.2830  133.4143  155.1328 H   0  0  0  0  0  0  0  0  0  0  0  0
  148.9863  133.0054  155.1784 H   0  0  0  0  0  0  0  0  0  0  0  0
  148.4520  134.9409  153.1183 H   0  0  0  0  0  0  0  0  0  0  0  0
  149.0000  136.8704  153.2646 H   0  0  0  0  0  0  0  0  0  0  0  0
  149.6449  138.0253  155.9630 H   0  0  0  0  0  0  0  0  0  0  0  0
  148.2575  139.1862  153.5274 H   0  0  0  0  0  0  0  0  0  0  0  0
  147.7146  139.2488  155.2095 H   0  0  0  0  0  0  0  0  0  0  0  0
  149.1212  141.3334  154.1816 H   0  0  0  0  0  0  0  0  0  0  0  0
  149.5128  140.7555  155.8033 H   0  0  0  0  0  0  0  0  0  0  0  0
  150.9280  138.3891  153.2221 H   0  0  0  0  0  0  0  0  0  0  0  0
  152.2406  137.0936  154.9323 H   0  0  0  0  0  0  0  0  0  0  0  0
  152.1117  138.4449  156.0572 H   0  0  0  0  0  0  0  0  0  0  0  0
  153.0248  138.6249  154.5615 H   0  0  0  0  0  0  0  0  0  0  0  0
  1  2  1  0  0  0  0
  1 20  1  0  0  0  0
  1 21  1  0  0  0  0
  1 22  1  0  0  0  0
  2 19  1  0  0  0  0
  2  3  2  0  0  0  0
  3  4  1  0  0  0  0
  3 23  1  0  0  0  0
  4  5  2  0  0  0  0
  5  6  1  0  0  0  0
  5 19  1  0  0  0  0
  6  7  1  0  0  0  0
  6  8  1  0  0  0  0
  6 24  1  0  0  0  0
  7 25  1  0  0  0  0
  7 26  1  0  0  0  0
  7 27  1  0  0  0  0
  8  9  1  0  0  0  0
  8 28  1  0  0  0  0
  8 29  1  0  0  0  0
  9 10  1  0  0  0  0
  9 30  1  0  0  0  0
 10 11  2  0  0  0  0
 10 12  1  0  0  0  0
 12 13  1  0  0  0  0
 12 31  1  0  0  0  0
 13 17  1  0  0  0  0
 13 14  1  0  0  0  0
 13 32  1  0  0  0  0
 14 15  1  0  0  0  0
 14 33  1  0  0  0  0
 14 34  1  0  0  0  0
 15 16  1  0  0  0  0
 15 35  1  0  0  0  0
 15 36  1  0  0  0  0
 16 17  1  0  0  0  0
 17 18  1  0  0  0  0
 17 37  1  0  0  0  0
 18 38  1  0  0  0  0
 18 39  1  0  0  0  0
 18 40  1  0  0  0  0
M  END
> <s_m_source_file>
AV-unprocessed.smi

> <i_m_source_file_index>
2445

> <i_lp_mmshare_version>
43012

> <i_f3d_flags>
0

> <s_epik_input>
W0NIM11jMVtjSF1uYyhzMSlbQ0BIXShbQ0gzXSlbQ0gyXVtOSF1DKD1PKVtOSF1bQ0BASF0yW0NIMl1bQ0gyXU9bQ0BIXTJbQ0gzXQ==

> <s_epik_cmdline>
J2VwaWtfcHl0aG9uJywgJy1waCcsICc3LjAnLCAnLXRuJywgJzgnLCAnLW1hJywgJzIwMCcsICctbWV0YWxfYmluZGluZycsICctaW1hZScsICc8aW5maWxlLm1hZT4nLCAnLW9tYWUnLCAnPG91dGZpbGUubWFlPic=

> <r_epik_Ionization_Penalty>
0.000649483

> <r_epik_Ionization_Penalty_Charging>
0

> <r_epik_Ionization_Penalty_Neutral>
0.000649483

> <r_epik_State_Penalty>
0.000379895

> <r_epik_Charging_Adjusted_Penalty>
0.000379895

> <i_epik_Tot_Q>
0

> <i_epik_Tot_abs_Q>
0

> <r_epik_Metal_State_Penalty>
-0

> <b_epik_Metal_Only>
0

> <s_lp_Force_Field>
OPLS_2005

> <r_lp_Energy>
5.96994

> <b_lp_Chiralities_Consistent>
1

> <s_lp_Variant>
AV-unprocessed.smi:2445-1

> <Gold.Version>
5.8.1

> <Gold.Id.Protein>
6NUR|6NUR_protein|mol2

> <Gold.PLP.Fitness>
38.7818

> <Gold.PLP.PLP>
-30.6323

> <Gold.PLP.part.hbond>
-2.9035

> <Gold.PLP.part.metal>
0.0000

> <Gold.PLP.part.buried>
-3.6777

> <Gold.PLP.part.nonpolar>
-25.7302

> <Gold.PLP.part.repulsive>
0.2302

> <Gold.PLP.ligand.clash>
0.0000

> <Gold.PLP.ligand.torsion>
0.2313

> <Gold.PLP.Chemscore.Hbond>
2.8320

> <Gold.PLP.Chemscore.CHOScore>
0.0000

> <Gold.PLP.Chemscore.Metal>
0.0000

> <Gold.Chemscore.Hbonds>
donor molecule, donor type, donor heavy atom, donor atom, acceptor molecule, acceptor atom, score
      L1  H     9    30       P1  7948  0.83
      L1  H    12    31       P1  7948  0.99
      P1  H  7989  7998       L1    16  0.76

> <Gold.PLP.Chemscore.Internal.Correction>
0.1160

> <Gold.Rescore>
     Score         DG    S(hbond)    S(metal)    S(lipo)     H(rot)  DE(clash)    DE(int)     intcor
     19.40     -19.56       2.57        0.00      80.38       1.53       0.03       0.13       ----

> <Gold.Chemscore.Fitness>
19.3969

> <Gold.Chemscore.DG>
-19.5612

> <Gold.Chemscore.ZeroCoef>
-5.4800

> <Gold.Chemscore.Hbond>
2.5748

> <Gold.Chemscore.Metal>
0.0000

> <Gold.Chemscore.Lipo>
80.3822

> <Gold.Chemscore.Internal_Hbond>
0.0000

> <Gold.Chemscore.DEClash>
0.0341

> <Gold.Chemscore.DEInternal>
0.1303

> <Gold.Chemscore.Rot>
1.5325

> <Gold.Chemscore.Internal.Correction>
   9.000000E+99

> <Gold.Chemscore.Hbonds>
donor molecule, donor type, donor heavy atom, donor atom, acceptor molecule, acceptor atom, score
      L1  H     9    30       P1  7948  0.57
      L1  H    12    31       P1  7948  0.90
      P1  H  7989  7998       L1    16  0.74

> <Gold.Chemscore.Hbond.Weighted>
-8.5998

> <Gold.Chemscore.Metal.Weighted>
-0.0000

> <Gold.Chemscore.Lipo.Weighted>
-9.4047

> <Gold.Chemscore.Internal_Hbond.Weighted>
0.0000

> <Gold.Chemscore.DEClash.Weighted>
0.0341

> <Gold.Chemscore.DEInternal.Weighted>
0.1303

> <Gold.Chemscore.Rot.Weighted>
3.9233

> <Gold.Chemscore.Internal.Correction.Weighted>
   9.000000E+99

> <Gold.Protein.RotatedTorsions>
[ 6907 6896 6895 6894 ] final -172.41 input  -60.11 | X-H torsion
[ 7974 7965 7964 7962 ] final  152.95 input  175.53 | X-H torsion
[ 8008 7997 7996 7995 ] final  142.34 input   59.86 | X-H torsion
[ 10167 10162 10161 10158 ] final   17.65 input  -65.29 | X-H torsion
[ 10718 10713 10712 10709 ] final -133.18 input   66.30 | X-H torsion
[ 10763 10752 10751 10750 ] final  -25.90 input  -60.55 | X-H torsion
[ 11005 11000 10999 10996 ] final -162.61 input  -57.11 | X-H torsion

> <Gold.Protein.ActiveResidues>
 VAL166  LYS551  ARG553  GLY616  TRP617  ASP618  TYR619  PRO620  LYS621  CYS622 
 ASP623  PHE694  ASN695  SER759  ASP760  ASP761  ALA762  ILE779  LEU786  VAL792 
 PHE793  MET794  SER795  GLU796  ALA797  LYS798  CYS799  TRP800  GLU811  SER814 

> <Gold.Protein.RotatedAtoms>
  151.5395  133.3435  159.2932 H   0  0  0  0  0  0  0  0  0  0  0  0  # atno 6907 bound_to 6896
  150.8544  134.7881  159.7045 H   0  0  0  0  0  0  0  0  0  0  0  0  # atno 6908 bound_to 6896
  152.4582  134.5253  159.9846 H   0  0  0  0  0  0  0  0  0  0  0  0  # atno 6909 bound_to 6896
  144.8188  139.6736  143.6110 H   0  0  0  0  0  0  0  0  0  0  0  0  # atno 7974 bound_to 7965
  156.2951  140.2291  156.4712 H   0  0  0  0  0  0  0  0  0  0  0  0  # atno 8008 bound_to 7997
  154.7933  140.0453  157.1239 H   0  0  0  0  0  0  0  0  0  0  0  0  # atno 8009 bound_to 7997
  154.9619  140.3055  155.5030 H   0  0  0  0  0  0  0  0  0  0  0  0  # atno 8010 bound_to 7997
  140.5711  143.9160  150.6713 H   0  0  0  0  0  0  0  0  0  0  0  0  # atno 10167 bound_to 10162
  156.2423  130.7103  151.0969 H   0  0  0  0  0  0  0  0  0  0  0  0  # atno 10718 bound_to 10713
  153.7072  135.6953  153.5047 H   0  0  0  0  0  0  0  0  0  0  0  0  # atno 10763 bound_to 10752
  153.2299  135.4341  155.0582 H   0  0  0  0  0  0  0  0  0  0  0  0  # atno 10764 bound_to 10752
  154.8326  135.3481  154.6610 H   0  0  0  0  0  0  0  0  0  0  0  0  # atno 10765 bound_to 10752
  140.6073  134.4885  157.5212 H   0  0  0  0  0  0  0  0  0  0  0  0  # atno 11005 bound_to 11000
  146.2492  139.6163  142.9438 LP  0  0  0  0  0  0  0  0  0  0  0  0  # atno 17320 bound_to 7965
  145.5153  141.0434  143.2465 LP  0  0  0  0  0  0  0  0  0  0  0  0  # atno 17321 bound_to 7965
  140.2635  143.3507  152.1301 LP  0  0  0  0  0  0  0  0  0  0  0  0  # atno 17342 bound_to 10162
  139.5118  144.6906  151.5769 LP  0  0  0  0  0  0  0  0  0  0  0  0  # atno 17343 bound_to 10162
  157.7180  131.0698  150.6249 LP  0  0  0  0  0  0  0  0  0  0  0  0  # atno 17370 bound_to 10713
  156.6323  130.4435  149.5782 LP  0  0  0  0  0  0  0  0  0  0  0  0  # atno 17371 bound_to 10713
  139.9207  134.8155  156.1222 LP  0  0  0  0  0  0  0  0  0  0  0  0  # atno 17394 bound_to 11000
  141.0832  133.6745  156.2380 LP  0  0  0  0  0  0  0  0  0  0  0  0  # atno 17395 bound_to 11000

$$$$
