#       Name:                AV-unprocessed.smi:910
#       Creating user name   scv26
#       Creation time:       Fri Mar 27 02:01:34 2020


#       File generated by GOLD software.
#

@<TRIPOS>MOLECULE
AV-unprocessed.smi:910
    53    54     1
SMALL
NO_CHARGES


@<TRIPOS>ATOM
      1 ****        -3.3569   5.2895  -0.3175 C.3            1 S1                 0.0000
      2 ****        -3.1386   3.9864   0.3852 C.2            1 S1                 0.0000
      3 ****        -1.8692   3.4896   0.6451 N.2            1 S1                 0.0000
      4 ****        -2.0845   2.3317   1.2716 C.2            1 S1                 0.0000
      5 ****        -1.0978   1.4311   1.7441 N.am           1 S1                 0.0000
      6 ****         0.2357   1.5458   1.6312 C.2            1 S1                 0.0000
      7 ****         0.8266   2.5015   1.1276 O.2            1 S1                 0.0000
      8 ****         0.8586   0.4693   2.1313 N.am           1 S1                 0.0000
      9 ****         2.2974   0.2282   2.0859 C.3            1 S1                 0.0000
     10 ****         2.7737  -0.1027   0.6632 C.3            1 S1                 0.0000
     11 ****         2.0165  -1.2009   0.1772 O.3            1 S1                 0.0000
     12 ****         2.2520  -1.5287  -1.1866 C.3            1 S1                 0.0000
     13 ****         3.4434  -2.5012  -1.2991 C.3            1 S1                 0.0000
     14 ****         3.1351  -3.8577  -0.6437 C.3            1 S1                 0.0000
     15 ****         1.8546  -4.4783  -1.2229 C.3            1 S1                 0.0000
     16 ****         0.6624  -3.5158  -1.1005 C.3            1 S1                 0.0000
     17 ****         0.9632  -2.1560  -1.7622 C.3            1 S1                 0.0000
     18 ****        -0.2338  -1.1956  -1.6671 C.3            1 S1                 0.0000
     19 ****        -3.4001   2.0337   1.4407 O.3            1 S1                 0.0000
     20 ****        -4.0577   3.0916   0.8717 C.2            1 S1                 0.0000
     21 ****        -5.5484   3.0742   0.8880 C.3            1 S1                 0.0000
     22 ****        -3.8016   5.1344  -1.3005 H              1 S1                 0.0000
     23 ****        -2.4209   5.8307  -0.4593 H              1 S1                 0.0000
     24 ****        -4.0272   5.9342   0.2511 H              1 S1                 0.0000
     25 ****        -1.4464   0.5951   2.1887 H              1 S1                 0.0000
     26 ****         0.2915  -0.2648   2.5293 H              1 S1                 0.0000
     27 ****         2.8343   1.0942   2.4757 H              1 S1                 0.0000
     28 ****         2.5220  -0.6054   2.7517 H              1 S1                 0.0000
     29 ****         2.6452   0.7659   0.0160 H              1 S1                 0.0000
     30 ****         3.8362  -0.3465   0.6711 H              1 S1                 0.0000
     31 ****         2.4703  -0.6243  -1.7573 H              1 S1                 0.0000
     32 ****         3.6783  -2.6591  -2.3523 H              1 S1                 0.0000
     33 ****         4.3378  -2.0668  -0.8530 H              1 S1                 0.0000
     34 ****         3.9748  -4.5381  -0.7871 H              1 S1                 0.0000
     35 ****         3.0236  -3.7274   0.4334 H              1 S1                 0.0000
     36 ****         2.0135  -4.7312  -2.2719 H              1 S1                 0.0000
     37 ****         1.6307  -5.4139  -0.7102 H              1 S1                 0.0000
     38 ****        -0.2178  -3.9667  -1.5598 H              1 S1                 0.0000
     39 ****         0.4182  -3.3698  -0.0474 H              1 S1                 0.0000
     40 ****         1.1373  -2.3414  -2.8232 H              1 S1                 0.0000
     41 ****        -0.4921  -0.9787  -0.6302 H              1 S1                 0.0000
     42 ****        -1.1162  -1.6206  -2.1456 H              1 S1                 0.0000
     43 ****        -0.0170  -0.2471  -2.1592 H              1 S1                 0.0000
     44 ****        -5.9326   3.7370   1.6633 H              1 S1                 0.0000
     45 ****        -5.9265   2.0705   1.0829 H              1 S1                 0.0000
     46 ****        -5.9496   3.4052  -0.0700 H              1 S1                 0.0000
     47 ****        -0.9899   3.9063   0.4144 LP             1 S1                 0.0000
     48 ****         0.3075   3.2740   0.7620 LP             1 S1                 0.0000
     49 ****         1.8257   2.5051   1.0843 LP             1 S1                 0.0000
     50 ****         1.0466  -0.9809   0.2816 LP             1 S1                 0.0000
     51 ****         2.2383  -2.0022   0.7328 LP             1 S1                 0.0000
     52 ****        -3.6247   1.9569   2.4121 LP             1 S1                 0.0000
     53 ****        -3.6331   1.1793   0.9762 LP             1 S1                 0.0000
@<TRIPOS>BOND
    1    1    2 1     
    2    1   22 1     
    3    1   23 1     
    4    1   24 1     
    5    2   20 2     
    6    2    3 1     
    7    3    4 2     
    8    4    5 1     
    9    4   19 1     
   10    5    6 am    
   11    5   25 1     
   12    6    7 2     
   13    6    8 am    
   14    8    9 1     
   15    8   26 1     
   16    9   10 1     
   17    9   27 1     
   18    9   28 1     
   19   10   11 1     
   20   10   29 1     
   21   10   30 1     
   22   11   12 1     
   23   12   17 1     
   24   12   13 1     
   25   12   31 1     
   26   13   14 1     
   27   13   32 1     
   28   13   33 1     
   29   14   15 1     
   30   14   34 1     
   31   14   35 1     
   32   15   16 1     
   33   15   36 1     
   34   15   37 1     
   35   16   17 1     
   36   16   38 1     
   37   16   39 1     
   38   17   18 1     
   39   17   40 1     
   40   18   41 1     
   41   18   42 1     
   42   18   43 1     
   43   19   20 1     
   44   20   21 1     
   45   21   44 1     
   46   21   45 1     
   47   21   46 1     
   48    3   47 1     
   49    7   48 1     
   50    7   49 1     
   51   11   50 1     
   52   11   51 1     
   53   19   52 1     
   54   19   53 1     
@<TRIPOS>SUBSTRUCTURE
      1 S1             1
@<TRIPOS>SET
LONE_PAIRS      STATIC     ATOMS    <user>   **** ""
7 47 48 49 50 51 52 53
DONOR_HYDROGENS      STATIC     ATOMS    <user>   **** ""
2 25 26
ATOM$BLUE        STATIC     ATOMS    COLORGROUP SYSTEM
7 47 48 49 50 51 52 53
ATOM$RED        STATIC     ATOMS    COLORGROUP SYSTEM
2 25 26
