AV-unprocessed.smi:1697|AV-procd|sdf|6805|dock9
  -GOLD-   22720 7573D 1   1.00000     0.00000
 Structure written by MMmdl.
 54 56  0  0  0  0  0  0  0  0  2 V2000
  143.3654  136.7436  157.5289 C   0  0  0  0  0  0  0  0  0  0  0  0
  144.6863  137.5252  157.5368 C   0  0  0  0  0  0  0  0  0  0  0  0
  145.3064  137.5330  156.2571 O   0  0  0  0  0  0  0  0  0  0  0  0
  144.5190  138.0744  155.2011 C   0  0  2  0  0  0  0  0  0  0  0  0
  145.3628  138.0924  153.9177 C   0  0  0  0  0  0  0  0  0  0  0  0
  146.5359  139.0829  154.0197 C   0  0  0  0  0  0  0  0  0  0  0  0
  146.0602  140.4493  154.3571 N   0  3  2  0  0  0  0  0  0  0  0  0
  147.1564  141.4510  154.3193 C   0  0  0  0  0  0  0  0  0  0  0  0
  148.2256  141.2104  155.4088 C   0  0  2  0  0  0  0  0  0  0  0  0
  147.9467  142.0572  156.5069 O   0  0  0  0  0  0  0  0  0  0  0  0
  149.6685  141.4696  154.9211 C   0  0  0  0  0  0  0  0  0  0  0  0
  150.6872  141.1091  155.8942 N   0  0  0  0  0  0  0  0  0  0  0  0
  151.5020  140.0368  155.8575 C   0  0  0  0  0  0  0  0  0  0  0  0
  152.3590  139.8877  156.8630 N   0  0  0  0  0  0  0  0  0  0  0  0
  152.0735  140.9970  157.6397 C   0  0  0  0  0  0  0  0  0  0  0  0
  152.6321  141.4279  158.8626 C   0  0  0  0  0  0  0  0  0  0  0  0
  152.1762  142.6080  159.4919 C   0  0  0  0  0  0  0  0  0  0  0  0
  152.8003  143.0297  160.8104 C   0  0  0  0  0  0  0  0  0  0  0  0
  151.1500  143.3817  158.8925 C   0  0  0  0  0  0  0  0  0  0  0  0
  150.6467  144.6557  159.5480 C   0  0  0  0  0  0  0  0  0  0  0  0
  150.5816  142.9661  157.6705 C   0  0  0  0  0  0  0  0  0  0  0  0
  151.0382  141.7856  157.0580 C   0  0  0  0  0  0  0  0  0  0  0  0
  145.2969  140.4584  155.6332 C   0  0  0  0  0  0  0  0  0  0  0  0
  144.0912  139.5052  155.5655 C   0  0  0  0  0  0  0  0  0  0  0  0
  142.8738  136.8081  158.4997 H   0  0  0  0  0  0  0  0  0  0  0  0
  143.5220  135.6871  157.3114 H   0  0  0  0  0  0  0  0  0  0  0  0
  142.6792  137.1429  156.7818 H   0  0  0  0  0  0  0  0  0  0  0  0
  144.4826  138.5606  157.8105 H   0  0  0  0  0  0  0  0  0  0  0  0
  145.3695  137.1357  158.2930 H   0  0  0  0  0  0  0  0  0  0  0  0
  143.6292  137.4680  155.0223 H   0  0  0  0  0  0  0  0  0  0  0  0
  145.7364  137.0905  153.7025 H   0  0  0  0  0  0  0  0  0  0  0  0
  144.7303  138.3708  153.0736 H   0  0  0  0  0  0  0  0  0  0  0  0
  147.2503  138.7488  154.7740 H   0  0  0  0  0  0  0  0  0  0  0  0
  147.0673  139.1010  153.0674 H   0  0  0  0  0  0  0  0  0  0  0  0
  147.6117  141.4460  153.3279 H   0  0  0  0  0  0  0  0  0  0  0  0
  146.7367  142.4486  154.4562 H   0  0  0  0  0  0  0  0  0  0  0  0
  148.1801  140.1826  155.7663 H   0  0  0  0  0  0  0  0  0  0  0  0
  148.2660  142.9247  156.3079 H   0  0  0  0  0  0  0  0  0  0  0  0
  149.8613  140.9186  153.9994 H   0  0  0  0  0  0  0  0  0  0  0  0
  149.7905  142.5248  154.6739 H   0  0  0  0  0  0  0  0  0  0  0  0
  151.4575  139.3200  155.0504 H   0  0  0  0  0  0  0  0  0  0  0  0
  153.4164  140.8400  159.3169 H   0  0  0  0  0  0  0  0  0  0  0  0
  153.3131  143.9853  160.7005 H   0  0  0  0  0  0  0  0  0  0  0  0
  153.5283  142.2967  161.1590 H   0  0  0  0  0  0  0  0  0  0  0  0
  152.0359  143.1323  161.5811 H   0  0  0  0  0  0  0  0  0  0  0  0
  149.9202  145.1678  158.9166 H   0  0  0  0  0  0  0  0  0  0  0  0
  151.4711  145.3447  159.7324 H   0  0  0  0  0  0  0  0  0  0  0  0
  150.1651  144.4293  160.4994 H   0  0  0  0  0  0  0  0  0  0  0  0
  149.7988  143.5466  157.2056 H   0  0  0  0  0  0  0  0  0  0  0  0
  145.9558  140.1729  156.4546 H   0  0  0  0  0  0  0  0  0  0  0  0
  144.9374  141.4619  155.8570 H   0  0  0  0  0  0  0  0  0  0  0  0
  143.3851  139.8718  154.8192 H   0  0  0  0  0  0  0  0  0  0  0  0
  143.5594  139.5098  156.5172 H   0  0  0  0  0  0  0  0  0  0  0  0
  145.4174  140.7118  153.6231 H   0  0  0  0  0  0  0  0  0  0  0  0
  1  2  1  0  0  0  0
  1 25  1  0  0  0  0
  1 26  1  0  0  0  0
  1 27  1  0  0  0  0
  2  3  1  0  0  0  0
  2 28  1  0  0  0  0
  2 29  1  0  0  0  0
  3  4  1  0  0  0  0
  4 24  1  0  0  0  0
  4  5  1  0  0  0  0
  4 30  1  0  0  0  0
  5  6  1  0  0  0  0
  5 31  1  0  0  0  0
  5 32  1  0  0  0  0
  6  7  1  0  0  0  0
  6 33  1  0  0  0  0
  6 34  1  0  0  0  0
  7  8  1  0  0  0  0
  7 23  1  0  0  0  0
  7 54  1  0  0  0  0
  8  9  1  0  0  0  0
  8 35  1  0  0  0  0
  8 36  1  0  0  0  0
  9 10  1  0  0  0  0
  9 11  1  0  0  0  0
  9 37  1  0  0  0  0
 10 38  1  0  0  0  0
 11 12  1  0  0  0  0
 11 39  1  0  0  0  0
 11 40  1  0  0  0  0
 12 22  1  0  0  0  0
 12 13  1  0  0  0  0
 13 14  2  0  0  0  0
 13 41  1  0  0  0  0
 14 15  1  0  0  0  0
 15 22  2  0  0  0  0
 15 16  1  0  0  0  0
 16 17  2  0  0  0  0
 16 42  1  0  0  0  0
 17 18  1  0  0  0  0
 17 19  1  0  0  0  0
 18 43  1  0  0  0  0
 18 44  1  0  0  0  0
 18 45  1  0  0  0  0
 19 20  1  0  0  0  0
 19 21  2  0  0  0  0
 20 46  1  0  0  0  0
 20 47  1  0  0  0  0
 20 48  1  0  0  0  0
 21 22  1  0  0  0  0
 21 49  1  0  0  0  0
 23 24  1  0  0  0  0
 23 50  1  0  0  0  0
 23 51  1  0  0  0  0
 24 52  1  0  0  0  0
 24 53  1  0  0  0  0
M  CHG  1   7   1
M  END
> <s_m_source_file>
AV-unprocessed.smi

> <i_m_source_file_index>
1697

> <i_lp_mmshare_version>
43012

> <i_f3d_flags>
0

> <s_epik_input>
W0NIM11bQ0gyXU9bQ0hdMVtDSDJdW0NIMl1OKFtDSDJdW0NIMl0xKVtDSDJdW0NASF0oW09IXSlbQ0gyXW4oW2NIXW4yKWMoYzIzKVtjSF1jKFtDSDNdKWMoW2NIXTMpW0NIM10=

> <s_epik_cmdline>
J2VwaWtfcHl0aG9uJywgJy1waCcsICc3LjAnLCAnLXRuJywgJzgnLCAnLW1hJywgJzIwMCcsICctbWV0YWxfYmluZGluZycsICctaW1hZScsICc8aW5maWxlLm1hZT4nLCAnLW9tYWUnLCAnPG91dGZpbGUubWFlPic=

> <r_epik_Ionization_Penalty>
0.112476

> <r_epik_Ionization_Penalty_Charging>
0.0244612

> <r_epik_Ionization_Penalty_Neutral>
0.0880147

> <r_epik_State_Penalty>
0.0961447

> <r_epik_Charging_Adjusted_Penalty>
0.120606

> <i_epik_Tot_Q>
1

> <i_epik_Tot_abs_Q>
1

> <r_epik_Metal_State_Penalty>
0.0206204

> <b_epik_Metal_Only>
0

> <s_lp_Force_Field>
OPLS_2005

> <r_lp_Energy>
22.8908

> <b_lp_Chiralities_Consistent>
1

> <s_lp_Variant>
AV-unprocessed.smi:1697-3

> <Gold.Version>
5.8.1

> <Gold.Id.Protein>
6NUR|6NUR_protein|mol2

> <Gold.PLP.Fitness>
46.5629

> <Gold.PLP.PLP>
-36.7153

> <Gold.PLP.part.hbond>
-3.0000

> <Gold.PLP.part.metal>
0.0000

> <Gold.PLP.part.buried>
-3.1249

> <Gold.PLP.part.nonpolar>
-31.2318

> <Gold.PLP.part.repulsive>
0.0000

> <Gold.PLP.ligand.clash>
0.0000

> <Gold.PLP.ligand.torsion>
0.7416

> <Gold.PLP.Chemscore.Hbond>
3.7300

> <Gold.PLP.Chemscore.CHOScore>
0.0000

> <Gold.PLP.Chemscore.Metal>
0.0000

> <Gold.Chemscore.Hbonds>
donor molecule, donor type, donor heavy atom, donor atom, acceptor molecule, acceptor atom, score
      L1  H     7    54       P1 10175  1.72
      L1  H    10    38       P1  8028  1.00
      P1  H  7997  8010       L1    14  0.99

> <Gold.PLP.Chemscore.Internal.Correction>
0.1408

> <Gold.Rescore>
     Score         DG    S(hbond)    S(metal)    S(lipo)     H(rot)  DE(clash)    DE(int)     intcor
     16.44     -17.36       1.61        0.00     105.15       2.27       0.02       0.90       ----

> <Gold.Chemscore.Fitness>
16.4411

> <Gold.Chemscore.DG>
-17.3577

> <Gold.Chemscore.ZeroCoef>
-5.4800

> <Gold.Chemscore.Hbond>
1.6134

> <Gold.Chemscore.Metal>
0.0000

> <Gold.Chemscore.Lipo>
105.1498

> <Gold.Chemscore.Internal_Hbond>
0.0000

> <Gold.Chemscore.DEClash>
0.0174

> <Gold.Chemscore.DEInternal>
0.8993

> <Gold.Chemscore.Rot>
2.2710

> <Gold.Chemscore.Internal.Correction>
   9.000000E+99

> <Gold.Chemscore.Hbonds>
donor molecule, donor type, donor heavy atom, donor atom, acceptor molecule, acceptor atom, score
      L1  H     7    54       P1 10175  0.76
      L1  H    10    38       P1  8028  0.72
      P1  H  7997  8010       L1    14  0.27

> <Gold.Chemscore.Hbond.Weighted>
-5.3889

> <Gold.Chemscore.Metal.Weighted>
-0.0000

> <Gold.Chemscore.Lipo.Weighted>
-12.3025

> <Gold.Chemscore.Internal_Hbond.Weighted>
0.0000

> <Gold.Chemscore.DEClash.Weighted>
0.0174

> <Gold.Chemscore.DEInternal.Weighted>
0.8993

> <Gold.Chemscore.Rot.Weighted>
5.8137

> <Gold.Chemscore.Internal.Correction.Weighted>
   9.000000E+99

> <Gold.Protein.RotatedTorsions>
[ 6907 6896 6895 6894 ] final   12.28 input  -60.11 | X-H torsion
[ 7974 7965 7964 7962 ] final   16.77 input  175.53 | X-H torsion
[ 8008 7997 7996 7995 ] final   59.75 input   59.86 | X-H torsion
[ 10167 10162 10161 10158 ] final   33.97 input  -65.29 | X-H torsion
[ 10718 10713 10712 10709 ] final  -76.04 input   66.30 | X-H torsion
[ 10763 10752 10751 10750 ] final -113.02 input  -60.55 | X-H torsion
[ 11005 11000 10999 10996 ] final  -43.29 input  -57.11 | X-H torsion

> <Gold.Protein.ActiveResidues>
 VAL166  LYS551  ARG553  GLY616  TRP617  ASP618  TYR619  PRO620  LYS621  CYS622 
 ASP623  PHE694  ASN695  SER759  ASP760  ASP761  ALA762  ILE779  LEU786  VAL792 
 PHE793  MET794  SER795  GLU796  ALA797  LYS798  CYS799  TRP800  GLU811  SER814 

> <Gold.Protein.RotatedAtoms>
  151.7677  135.0794  160.0354 H   0  0  0  0  0  0  0  0  0  0  0  0  # atno 6907 bound_to 6896
  152.3310  133.5953  159.5818 H   0  0  0  0  0  0  0  0  0  0  0  0  # atno 6908 bound_to 6896
  150.7422  133.9784  159.3610 H   0  0  0  0  0  0  0  0  0  0  0  0  # atno 6909 bound_to 6896
  146.2239  139.8699  142.8589 H   0  0  0  0  0  0  0  0  0  0  0  0  # atno 7974 bound_to 7965
  155.5713  140.3490  155.4516 H   0  0  0  0  0  0  0  0  0  0  0  0  # atno 8008 bound_to 7997
  156.0442  140.1303  157.0147 H   0  0  0  0  0  0  0  0  0  0  0  0  # atno 8009 bound_to 7997
  154.4405  140.1018  156.6267 H   0  0  0  0  0  0  0  0  0  0  0  0  # atno 8010 bound_to 7997
  140.4358  144.1259  150.6166 H   0  0  0  0  0  0  0  0  0  0  0  0  # atno 10167 bound_to 10162
  156.0188  130.4455  150.3134 H   0  0  0  0  0  0  0  0  0  0  0  0  # atno 10718 bound_to 10713
  154.8377  135.4469  154.1284 H   0  0  0  0  0  0  0  0  0  0  0  0  # atno 10763 bound_to 10752
  153.2501  135.6925  153.7695 H   0  0  0  0  0  0  0  0  0  0  0  0  # atno 10764 bound_to 10752
  153.7010  135.3372  155.3200 H   0  0  0  0  0  0  0  0  0  0  0  0  # atno 10765 bound_to 10752
  141.0373  133.6794  156.2712 H   0  0  0  0  0  0  0  0  0  0  0  0  # atno 11005 bound_to 11000
  145.2618  141.0079  143.3822 LP  0  0  0  0  0  0  0  0  0  0  0  0  # atno 17320 bound_to 7965
  144.9292  139.4318  143.6503 LP  0  0  0  0  0  0  0  0  0  0  0  0  # atno 17321 bound_to 7965
  140.4375  143.2541  151.9516 LP  0  0  0  0  0  0  0  0  0  0  0  0  # atno 17342 bound_to 10162
  139.4787  144.5686  151.8125 LP  0  0  0  0  0  0  0  0  0  0  0  0  # atno 17343 bound_to 10162
  157.1235  131.0253  151.2999 LP  0  0  0  0  0  0  0  0  0  0  0  0  # atno 17370 bound_to 10713
  157.4608  130.7652  149.7235 LP  0  0  0  0  0  0  0  0  0  0  0  0  # atno 17371 bound_to 10713
  140.6298  134.5276  157.5558 LP  0  0  0  0  0  0  0  0  0  0  0  0  # atno 17394 bound_to 11000
  139.9250  134.8074  156.1096 LP  0  0  0  0  0  0  0  0  0  0  0  0  # atno 17395 bound_to 11000

$$$$
