AV-unprocessed.smi:243|AV-procd|sdf|1858|dock9
  -GOLD-   2262020493D 1   1.00000     0.00000
 Structure written by MMmdl.
 58 61  0  0  0  0  0  0  0  0  2 V2000
  141.9843  136.4569  154.1747 C   0  0  0  0  0  0  0  0  0  0  0  0
  143.0052  136.4247  153.0278 C   0  0  0  0  0  0  0  0  0  0  0  0
  144.1048  137.4052  153.2146 N   0  3  2  0  0  0  0  0  0  0  0  0
  145.2434  137.1475  152.2962 C   0  0  0  0  0  0  0  0  0  0  0  0
  146.3342  138.2297  152.4120 C   0  0  0  0  0  0  0  0  0  0  0  0
  146.7818  138.5359  153.8569 C   0  0  2  0  0  0  0  0  0  0  0  0
  147.8498  137.6458  154.3477 N   0  0  0  0  0  0  0  0  0  0  0  0
  147.6254  136.2702  154.7882 C   0  0  0  0  0  0  0  0  0  0  0  0
  149.0082  138.2295  154.7513 C   0  0  0  0  0  0  0  0  0  0  0  0
  150.1066  137.4522  154.9456 N   0  0  0  0  0  0  0  0  0  0  0  0
  151.2532  137.9961  155.3629 C   0  0  0  0  0  0  0  0  0  0  0  0
  151.5187  139.2743  155.6376 N   0  0  0  0  0  0  0  0  0  0  0  0
  150.4264  140.0634  155.4284 C   0  0  0  0  0  0  0  0  0  0  0  0
  149.1440  139.6272  154.9899 C   0  0  0  0  0  0  0  0  0  0  0  0
  148.2861  140.7159  154.8838 N   0  0  0  0  0  0  0  0  0  0  0  0
  149.0152  141.7338  155.2516 C   0  0  0  0  0  0  0  0  0  0  0  0
  150.3157  141.4338  155.5896 N   0  0  0  0  0  0  0  0  0  0  0  0
  151.3376  142.3687  156.0367 C   0  0  0  0  0  0  0  0  0  0  0  0
  151.2159  142.7576  157.5292 C   0  0  1  0  0  0  0  0  0  0  0  0
  149.8551  143.0178  157.8298 O   0  0  0  0  0  0  0  0  0  0  0  0
  151.7099  141.6619  158.4667 C   0  0  0  0  0  0  0  0  0  0  0  0
  152.2052  142.4472  159.6736 C   0  0  0  0  0  0  0  0  0  0  0  0
  152.8246  143.5755  159.0806 O   0  0  0  0  0  0  0  0  0  0  0  0
  152.0542  143.9823  157.9535 C   0  0  0  0  0  0  0  0  0  0  0  0
  145.5576  138.6793  154.7948 C   0  0  2  0  0  0  0  0  0  0  0  0
  145.9296  138.9371  156.2651 C   0  0  0  0  0  0  0  0  0  0  0  0
  144.5490  137.5260  154.6284 C   0  0  0  0  0  0  0  0  0  0  0  0
  141.1438  135.7977  153.9560 H   0  0  0  0  0  0  0  0  0  0  0  0
  141.5854  137.4615  154.3194 H   0  0  0  0  0  0  0  0  0  0  0  0
  142.4148  136.1250  155.1189 H   0  0  0  0  0  0  0  0  0  0  0  0
  143.4148  135.4212  152.9025 H   0  0  0  0  0  0  0  0  0  0  0  0
  142.4708  136.6562  152.1053 H   0  0  0  0  0  0  0  0  0  0  0  0
  145.6453  136.1525  152.4743 H   0  0  0  0  0  0  0  0  0  0  0  0
  144.8781  137.1380  151.2684 H   0  0  0  0  0  0  0  0  0  0  0  0
  147.1943  137.9726  151.7923 H   0  0  0  0  0  0  0  0  0  0  0  0
  145.9309  139.1495  151.9863 H   0  0  0  0  0  0  0  0  0  0  0  0
  147.2059  139.5388  153.8178 H   0  0  0  0  0  0  0  0  0  0  0  0
  148.5592  135.7062  154.7762 H   0  0  0  0  0  0  0  0  0  0  0  0
  146.9326  135.7398  154.1435 H   0  0  0  0  0  0  0  0  0  0  0  0
  147.2332  136.2468  155.8048 H   0  0  0  0  0  0  0  0  0  0  0  0
  152.0754  137.3086  155.4972 H   0  0  0  0  0  0  0  0  0  0  0  0
  148.6229  142.7400  155.2826 H   0  0  0  0  0  0  0  0  0  0  0  0
  152.3144  141.9243  155.8410 H   0  0  0  0  0  0  0  0  0  0  0  0
  151.2797  143.2611  155.4121 H   0  0  0  0  0  0  0  0  0  0  0  0
  149.4208  143.2923  157.0364 H   0  0  0  0  0  0  0  0  0  0  0  0
  150.9498  140.9208  158.7183 H   0  0  0  0  0  0  0  0  0  0  0  0
  152.5527  141.1325  158.0200 H   0  0  0  0  0  0  0  0  0  0  0  0
  151.3731  142.7714  160.3007 H   0  0  0  0  0  0  0  0  0  0  0  0
  152.9041  141.8811  160.2897 H   0  0  0  0  0  0  0  0  0  0  0  0
  152.7412  144.3089  157.1739 H   0  0  0  0  0  0  0  0  0  0  0  0
  151.4307  144.8379  158.2179 H   0  0  0  0  0  0  0  0  0  0  0  0
  145.0347  139.5784  154.4644 H   0  0  0  0  0  0  0  0  0  0  0  0
  146.3916  138.0652  156.7274 H   0  0  0  0  0  0  0  0  0  0  0  0
  145.0460  139.1879  156.8525 H   0  0  0  0  0  0  0  0  0  0  0  0
  146.6285  139.7696  156.3525 H   0  0  0  0  0  0  0  0  0  0  0  0
  143.6893  137.7270  155.2664 H   0  0  0  0  0  0  0  0  0  0  0  0
  144.9667  136.5795  154.9696 H   0  0  0  0  0  0  0  0  0  0  0  0
  143.7311  138.3052  152.9489 H   0  0  0  0  0  0  0  0  0  0  0  0
  1  2  1  0  0  0  0
  1 28  1  0  0  0  0
  1 29  1  0  0  0  0
  1 30  1  0  0  0  0
  2  3  1  0  0  0  0
  2 31  1  0  0  0  0
  2 32  1  0  0  0  0
  3 27  1  0  0  0  0
  3  4  1  0  0  0  0
  3 58  1  0  0  0  0
  4  5  1  0  0  0  0
  4 33  1  0  0  0  0
  4 34  1  0  0  0  0
  5  6  1  0  0  0  0
  5 35  1  0  0  0  0
  5 36  1  0  0  0  0
  6  7  1  0  0  0  0
  6 25  1  0  0  0  0
  6 37  1  0  0  0  0
  7  8  1  0  0  0  0
  7  9  1  0  0  0  0
  8 38  1  0  0  0  0
  8 39  1  0  0  0  0
  8 40  1  0  0  0  0
  9 14  1  0  0  0  0
  9 10  2  0  0  0  0
 10 11  1  0  0  0  0
 11 12  2  0  0  0  0
 11 41  1  0  0  0  0
 12 13  1  0  0  0  0
 13 17  1  0  0  0  0
 13 14  2  0  0  0  0
 14 15  1  0  0  0  0
 15 16  2  0  0  0  0
 16 17  1  0  0  0  0
 16 42  1  0  0  0  0
 17 18  1  0  0  0  0
 18 19  1  0  0  0  0
 18 43  1  0  0  0  0
 18 44  1  0  0  0  0
 19 24  1  0  0  0  0
 19 20  1  0  0  0  0
 19 21  1  0  0  0  0
 20 45  1  0  0  0  0
 21 22  1  0  0  0  0
 21 46  1  0  0  0  0
 21 47  1  0  0  0  0
 22 23  1  0  0  0  0
 22 48  1  0  0  0  0
 22 49  1  0  0  0  0
 23 24  1  0  0  0  0
 24 50  1  0  0  0  0
 24 51  1  0  0  0  0
 25 26  1  0  0  0  0
 25 27  1  0  0  0  0
 25 52  1  0  0  0  0
 26 53  1  0  0  0  0
 26 54  1  0  0  0  0
 26 55  1  0  0  0  0
 27 56  1  0  0  0  0
 27 57  1  0  0  0  0
M  CHG  1   3   1
M  END
> <s_m_source_file>
AV-unprocessed.smi

> <i_m_source_file_index>
243

> <i_lp_mmshare_version>
43012

> <i_f3d_flags>
0

> <s_epik_input>
W0NIM11bQ0gyXU4xW0NIMl1bQ0gyXVtDQEhdKFtDQEBIXShbQ0gzXSlbQ0gyXTEpTihbQ0gzXSljKG5bY0hdbjIpYyhjMjMpbltjSF1uM1tDSDJdW0NAQF00KFtPSF0pW0NIMl1bQ0gyXU9bQ0gyXTQ=

> <s_epik_cmdline>
J2VwaWtfcHl0aG9uJywgJy1waCcsICc3LjAnLCAnLXRuJywgJzgnLCAnLW1hJywgJzIwMCcsICctbWV0YWxfYmluZGluZycsICctaW1hZScsICc8aW5maWxlLm1hZT4nLCAnLW9tYWUnLCAnPG91dGZpbGUubWFlPic=

> <r_lp_tautomer_probability>
1

> <r_epik_Ionization_Penalty>
0.00253099

> <r_epik_Ionization_Penalty_Charging>
0.00137877

> <r_epik_Ionization_Penalty_Neutral>
0.00115221

> <r_epik_State_Penalty>
-0

> <r_epik_Charging_Adjusted_Penalty>
0.00137877

> <i_epik_Tot_Q>
1

> <i_epik_Tot_abs_Q>
1

> <r_epik_Metal_State_Penalty>
-0

> <b_epik_Metal_Only>
0

> <s_lp_Force_Field>
OPLS_2005

> <r_lp_Energy>
51.0856

> <b_lp_Chiralities_Consistent>
1

> <s_lp_Variant>
AV-unprocessed.smi:243-11

> <Gold.Version>
5.8.1

> <Gold.Id.Protein>
6NUR|6NUR_protein|mol2

> <Gold.PLP.Fitness>
43.1413

> <Gold.PLP.PLP>
-32.9252

> <Gold.PLP.part.hbond>
-2.0000

> <Gold.PLP.part.metal>
0.0000

> <Gold.PLP.part.buried>
-4.7345

> <Gold.PLP.part.nonpolar>
-27.3834

> <Gold.PLP.part.repulsive>
0.2350

> <Gold.PLP.ligand.clash>
0.0000

> <Gold.PLP.ligand.torsion>
1.0408

> <Gold.PLP.Chemscore.Hbond>
2.9825

> <Gold.PLP.Chemscore.CHOScore>
0.9424

> <Gold.PLP.Chemscore.Metal>
0.0000

> <Gold.Chemscore.Hbonds>
donor molecule, donor type, donor heavy atom, donor atom, acceptor molecule, acceptor atom, score
      L1  H     3    58       P1 10175  1.24
      L1  H    20    45       P1  8028  0.96
      L1  C    16    42       P1  8028  0.97

> <Gold.PLP.Chemscore.Internal.Correction>
0.5229

> <Gold.Rescore>
     Score         DG    S(hbond)    S(metal)    S(lipo)     H(rot)  DE(clash)    DE(int)     intcor
     11.13     -15.06       1.73        0.00      81.34       2.24       1.43       2.50       ----

> <Gold.Chemscore.Fitness>
11.1334

> <Gold.Chemscore.DG>
-15.0572

> <Gold.Chemscore.ZeroCoef>
-5.4800

> <Gold.Chemscore.Hbond>
1.7332

> <Gold.Chemscore.Metal>
0.0000

> <Gold.Chemscore.Lipo>
81.3448

> <Gold.Chemscore.Internal_Hbond>
0.0000

> <Gold.Chemscore.DEClash>
1.4263

> <Gold.Chemscore.DEInternal>
2.4975

> <Gold.Chemscore.Rot>
2.2379

> <Gold.Chemscore.Internal.Correction>
   9.000000E+99

> <Gold.Chemscore.Hbonds>
donor molecule, donor type, donor heavy atom, donor atom, acceptor molecule, acceptor atom, score
      L1  H     3    58       P1 10175  0.60
      L1  H    20    45       P1  8028  0.82

> <Gold.Chemscore.Hbond.Weighted>
-5.7889

> <Gold.Chemscore.Metal.Weighted>
-0.0000

> <Gold.Chemscore.Lipo.Weighted>
-9.5173

> <Gold.Chemscore.Internal_Hbond.Weighted>
0.0000

> <Gold.Chemscore.DEClash.Weighted>
1.4263

> <Gold.Chemscore.DEInternal.Weighted>
2.4975

> <Gold.Chemscore.Rot.Weighted>
5.7291

> <Gold.Chemscore.Internal.Correction.Weighted>
   9.000000E+99

> <Gold.Protein.RotatedTorsions>
[ 6907 6896 6895 6894 ] final  126.49 input  -60.11 | X-H torsion
[ 7974 7965 7964 7962 ] final -106.11 input  175.53 | X-H torsion
[ 8008 7997 7996 7995 ] final    5.84 input   59.86 | X-H torsion
[ 10167 10162 10161 10158 ] final  114.42 input  -65.29 | X-H torsion
[ 10718 10713 10712 10709 ] final -145.53 input   66.30 | X-H torsion
[ 10763 10752 10751 10750 ] final   25.80 input  -60.55 | X-H torsion
[ 11005 11000 10999 10996 ] final   57.40 input  -57.11 | X-H torsion

> <Gold.Protein.ActiveResidues>
 VAL166  LYS551  ARG553  GLY616  TRP617  ASP618  TYR619  PRO620  LYS621  CYS622 
 ASP623  PHE694  ASN695  SER759  ASP760  ASP761  ALA762  ILE779  LEU786  VAL792 
 PHE793  MET794  SER795  GLU796  ALA797  LYS798  CYS799  TRP800  GLU811  SER814 

> <Gold.Protein.RotatedAtoms>
  152.3899  133.6664  159.6228 H   0  0  0  0  0  0  0  0  0  0  0  0  # atno 6907 bound_to 6896
  150.7809  133.8972  159.3339 H   0  0  0  0  0  0  0  0  0  0  0  0  # atno 6908 bound_to 6896
  151.6761  135.0970  160.0258 H   0  0  0  0  0  0  0  0  0  0  0  0  # atno 6909 bound_to 6896
  145.2219  140.9138  143.3254 H   0  0  0  0  0  0  0  0  0  0  0  0  # atno 7974 bound_to 7965
  154.7334  140.2735  155.6436 H   0  0  0  0  0  0  0  0  0  0  0  0  # atno 8008 bound_to 7997
  156.2855  140.2711  156.1966 H   0  0  0  0  0  0  0  0  0  0  0  0  # atno 8009 bound_to 7997
  155.0352  140.0371  157.2479 H   0  0  0  0  0  0  0  0  0  0  0  0  # atno 8010 bound_to 7997
  139.6389  144.7122  151.2277 H   0  0  0  0  0  0  0  0  0  0  0  0  # atno 10167 bound_to 10162
  156.3836  130.7849  151.2044 H   0  0  0  0  0  0  0  0  0  0  0  0  # atno 10718 bound_to 10713
  153.0667  135.6575  154.0339 H   0  0  0  0  0  0  0  0  0  0  0  0  # atno 10763 bound_to 10752
  153.9994  135.2938  155.3405 H   0  0  0  0  0  0  0  0  0  0  0  0  # atno 10764 bound_to 10752
  154.7027  135.5238  153.8619 H   0  0  0  0  0  0  0  0  0  0  0  0  # atno 10765 bound_to 10752
  140.0455  134.5811  155.9327 H   0  0  0  0  0  0  0  0  0  0  0  0  # atno 11005 bound_to 11000
  144.9757  139.3834  143.6287 LP  0  0  0  0  0  0  0  0  0  0  0  0  # atno 17320 bound_to 7965
  146.3374  139.8875  142.8814 LP  0  0  0  0  0  0  0  0  0  0  0  0  # atno 17321 bound_to 7965
  140.7480  143.6346  150.8391 LP  0  0  0  0  0  0  0  0  0  0  0  0  # atno 17342 bound_to 10162
  139.9981  143.5774  152.2886 LP  0  0  0  0  0  0  0  0  0  0  0  0  # atno 17343 bound_to 10162
  157.7494  131.0337  150.4282 LP  0  0  0  0  0  0  0  0  0  0  0  0  # atno 17370 bound_to 10713
  156.4531  130.4016  149.6623 LP  0  0  0  0  0  0  0  0  0  0  0  0  # atno 17371 bound_to 10713
  141.1905  133.6568  156.5414 LP  0  0  0  0  0  0  0  0  0  0  0  0  # atno 17394 bound_to 11000
  140.4000  134.7365  157.4774 LP  0  0  0  0  0  0  0  0  0  0  0  0  # atno 17395 bound_to 11000

$$$$
