#       Name:                AV-unprocessed.smi:3112
#       Creating user name   scv26
#       Creation time:       Fri Mar 27 17:23:14 2020


#       File generated by GOLD software.
#

@<TRIPOS>MOLECULE
AV-unprocessed.smi:3112
    40    40     1
SMALL
NO_CHARGES


@<TRIPOS>ATOM
      1 ****        -2.3289   4.3454  -1.5825 C.3            1 S1                 0.0000
      2 ****        -1.6778   2.9608  -1.4637 C.3            1 S1                 0.0000
      3 ****        -2.0046   2.2470  -0.1367 C.3            1 S1                 0.0000
      4 ****        -1.4312   2.9300   0.9601 O.3            1 S1                 0.0000
      5 ****        -1.5755   0.7685  -0.0870 C.3            1 S1                 0.0000
      6 ****        -0.1693   0.5833  -0.4561 N.3            1 S1                 0.0000
      7 ****         0.3155  -0.7981  -0.3782 C.3            1 S1                 0.0000
      8 ****         1.2443  -1.0498  -1.5811 C.3            1 S1                 0.0000
      9 ****         1.0198  -1.0869   0.9819 C.3            1 S1                 0.0000
     10 ****         0.1006  -0.9798   2.2128 C.3            1 S1                 0.0000
     11 ****         1.6853  -2.3844   0.9838 N.pl3          1 S1                 0.0000
     12 ****         3.0349  -2.6514   1.0924 C.2            1 S1                 0.0000
     13 ****         3.1887  -4.0074   1.0466 C.2            1 S1                 0.0000
     14 ****         1.8590  -4.4934   0.9078 C.2            1 S1                 0.0000
     15 ****         0.9620  -3.5219   0.8707 N.2            1 S1                 0.0000
     16 ****        -2.0988   4.7994  -2.5465 H              1 S1                 0.0000
     17 ****        -1.9704   5.0215  -0.8059 H              1 S1                 0.0000
     18 ****        -3.4138   4.2804  -1.4968 H              1 S1                 0.0000
     19 ****        -2.0238   2.3443  -2.2944 H              1 S1                 0.0000
     20 ****        -0.5984   3.0595  -1.5853 H              1 S1                 0.0000
     21 ****        -3.0848   2.2754   0.0115 H              1 S1                 0.0000
     22 ****        -1.7502   3.8194   0.9598 H              1 S1                 0.0000
     23 ****        -1.7884   0.3600   0.8989 H              1 S1                 0.0000
     24 ****        -2.1991   0.2049  -0.7818 H              1 S1                 0.0000
     25 ****        -0.0267   0.9394  -1.3957 H              1 S1                 0.0000
     26 ****        -0.5274  -1.4822  -0.4882 H              1 S1                 0.0000
     27 ****         1.5370  -2.0971  -1.6568 H              1 S1                 0.0000
     28 ****         2.1544  -0.4530  -1.5122 H              1 S1                 0.0000
     29 ****         0.7495  -0.7933  -2.5184 H              1 S1                 0.0000
     30 ****         1.8068  -0.3414   1.1079 H              1 S1                 0.0000
     31 ****        -0.2148   0.0487   2.3852 H              1 S1                 0.0000
     32 ****         0.6189  -1.3023   3.1166 H              1 S1                 0.0000
     33 ****        -0.7909  -1.5979   2.1031 H              1 S1                 0.0000
     34 ****         3.7661  -1.8628   1.1909 H              1 S1                 0.0000
     35 ****         4.1105  -4.5666   1.1035 H              1 S1                 0.0000
     36 ****         1.5212  -5.5165   0.8333 H              1 S1                 0.0000
     37 ****        -0.4349   2.9290   0.8745 LP             1 S1                 0.0000
     38 ****        -1.6929   2.4781   1.8130 LP             1 S1                 0.0000
     39 ****         0.3634   1.0906   0.2213 LP             1 S1                 0.0000
     40 ****        -0.0300  -3.6090   0.7794 LP             1 S1                 0.0000
@<TRIPOS>BOND
    1    1    2 1     
    2    1   16 1     
    3    1   17 1     
    4    1   18 1     
    5    2    3 1     
    6    2   19 1     
    7    2   20 1     
    8    3    4 1     
    9    3    5 1     
   10    3   21 1     
   11    4   22 1     
   12    5    6 1     
   13    5   23 1     
   14    5   24 1     
   15    6    7 1     
   16    6   25 1     
   17    7    8 1     
   18    7    9 1     
   19    7   26 1     
   20    8   27 1     
   21    8   28 1     
   22    8   29 1     
   23    9   10 1     
   24    9   11 1     
   25    9   30 1     
   26   10   31 1     
   27   10   32 1     
   28   10   33 1     
   29   11   15 1     
   30   11   12 1     
   31   12   13 2     
   32   12   34 1     
   33   13   14 1     
   34   13   35 1     
   35   14   15 2     
   36   14   36 1     
   37    4   37 1     
   38    4   38 1     
   39    6   39 1     
   40   15   40 1     
@<TRIPOS>SUBSTRUCTURE
      1 S1             1
@<TRIPOS>SET
LONE_PAIRS      STATIC     ATOMS    <user>   **** ""
4 37 38 39 40
DONOR_HYDROGENS      STATIC     ATOMS    <user>   **** ""
2 22 25
ATOM$BLUE        STATIC     ATOMS    COLORGROUP SYSTEM
4 37 38 39 40
ATOM$RED        STATIC     ATOMS    COLORGROUP SYSTEM
2 22 25
