AV-unprocessed.smi:1550|AV-procd|sdf|6225|dock5
  -GOLD-   22720 6403D 1   1.00000     0.00000
 Structure written by MMmdl.
 43 44  0  0  0  0  0  0  0  0  1 V2000
  152.2565  138.6807  156.0367 C   0  0  0  0  0  0  0  0  0  0  0  0
  151.2990  139.0665  157.1740 C   0  0  1  0  0  0  0  0  0  0  0  0
  150.8841  140.4107  156.9478 O   0  0  0  0  0  0  0  0  0  0  0  0
  150.4188  141.1102  158.0968 C   0  0  0  0  0  0  0  0  0  0  0  0
  151.4017  142.2454  158.4107 C   0  0  2  0  0  0  0  0  0  0  0  0
  151.9820  142.1298  159.8339 C   0  0  0  0  0  0  0  0  0  0  0  0
  152.8903  143.3252  160.1444 C   0  0  0  0  0  0  0  0  0  0  0  0
  152.1337  144.6314  159.8807 C   0  0  0  0  0  0  0  0  0  0  0  0
  151.5327  144.6241  158.4664 C   0  0  0  0  0  0  0  0  0  0  0  0
  150.6987  143.4816  158.3004 O   0  0  0  0  0  0  0  0  0  0  0  0
  150.0789  138.1322  157.2197 C   0  0  0  0  0  0  0  0  0  0  0  0
  149.3510  138.0377  156.2316 O   0  0  0  0  0  0  0  0  0  0  0  0
  149.9045  137.4644  158.3772 N   0  0  0  0  0  0  0  0  0  0  0  0
  148.8791  136.5776  158.7448 C   0  0  0  0  0  0  0  0  0  0  0  0
  148.2874  136.5430  159.9673 C   0  0  0  0  0  0  0  0  0  0  0  0
  147.2384  135.5906  160.2899 C   0  0  0  0  0  0  0  0  0  0  0  0
  146.5268  135.6171  161.6337 C   0  0  0  0  0  0  0  0  0  0  0  0
  145.2308  135.8985  161.4908 F   0  0  0  0  0  0  0  0  0  0  0  0
  146.6309  134.4273  162.2240 F   0  0  0  0  0  0  0  0  0  0  0  0
  147.0666  136.5295  162.4420 F   0  0  0  0  0  0  0  0  0  0  0  0
  146.8747  134.7435  159.3092 C   0  0  0  0  0  0  0  0  0  0  0  0
  147.4952  134.7559  158.0580 N   0  0  0  0  0  0  0  0  0  0  0  0
  148.4786  135.6141  157.7061 C   0  0  0  0  0  0  0  0  0  0  0  0
  148.9775  135.5600  156.5825 O   0  0  0  0  0  0  0  0  0  0  0  0
  147.1788  134.0757  157.3818 H   0  0  0  0  0  0  0  0  0  0  0  0
  152.5986  137.6503  156.1389 H   0  0  0  0  0  0  0  0  0  0  0  0
  153.1382  139.3219  156.0407 H   0  0  0  0  0  0  0  0  0  0  0  0
  151.7823  138.7820  155.0596 H   0  0  0  0  0  0  0  0  0  0  0  0
  151.8475  139.0104  158.1165 H   0  0  0  0  0  0  0  0  0  0  0  0
  149.4152  141.5125  157.9533 H   0  0  0  0  0  0  0  0  0  0  0  0
  150.3756  140.4160  158.9375 H   0  0  0  0  0  0  0  0  0  0  0  0
  152.2170  142.2188  157.6852 H   0  0  0  0  0  0  0  0  0  0  0  0
  151.1697  142.0900  160.5609 H   0  0  0  0  0  0  0  0  0  0  0  0
  152.5429  141.2006  159.9401 H   0  0  0  0  0  0  0  0  0  0  0  0
  153.2338  143.2857  161.1784 H   0  0  0  0  0  0  0  0  0  0  0  0
  153.7807  143.2834  159.5158 H   0  0  0  0  0  0  0  0  0  0  0  0
  151.3350  144.7471  160.6143 H   0  0  0  0  0  0  0  0  0  0  0  0
  152.7999  145.4856  160.0041 H   0  0  0  0  0  0  0  0  0  0  0  0
  150.9355  145.5224  158.3090 H   0  0  0  0  0  0  0  0  0  0  0  0
  152.3179  144.6275  157.7089 H   0  0  0  0  0  0  0  0  0  0  0  0
  150.6272  137.5824  159.0729 H   0  0  0  0  0  0  0  0  0  0  0  0
  148.5971  137.2137  160.7523 H   0  0  0  0  0  0  0  0  0  0  0  0
  146.0908  134.0061  159.4015 H   0  0  0  0  0  0  0  0  0  0  0  0
  1  2  1  0  0  0  0
  1 26  1  0  0  0  0
  1 27  1  0  0  0  0
  1 28  1  0  0  0  0
  2  3  1  0  0  0  0
  2 11  1  0  0  0  0
  2 29  1  0  0  0  0
  3  4  1  0  0  0  0
  4  5  1  0  0  0  0
  4 30  1  0  0  0  0
  4 31  1  0  0  0  0
  5 10  1  0  0  0  0
  5  6  1  0  0  0  0
  5 32  1  0  0  0  0
  6  7  1  0  0  0  0
  6 33  1  0  0  0  0
  6 34  1  0  0  0  0
  7  8  1  0  0  0  0
  7 35  1  0  0  0  0
  7 36  1  0  0  0  0
  8  9  1  0  0  0  0
  8 37  1  0  0  0  0
  8 38  1  0  0  0  0
  9 10  1  0  0  0  0
  9 39  1  0  0  0  0
  9 40  1  0  0  0  0
 11 12  2  0  0  0  0
 11 13  1  0  0  0  0
 13 14  1  0  0  0  0
 13 41  1  0  0  0  0
 14 23  1  0  0  0  0
 14 15  2  0  0  0  0
 15 16  1  0  0  0  0
 15 42  1  0  0  0  0
 16 17  1  0  0  0  0
 16 21  2  0  0  0  0
 17 18  1  0  0  0  0
 17 19  1  0  0  0  0
 17 20  1  0  0  0  0
 21 22  1  0  0  0  0
 21 43  1  0  0  0  0
 22 25  1  0  0  0  0
 22 23  1  0  0  0  0
 23 24  2  0  0  0  0
M  END
> <s_m_source_file>
AV-unprocessed.smi

> <i_m_source_file_index>
1550

> <i_lp_mmshare_version>
43012

> <i_f3d_flags>
0

> <s_epik_input>
TzFbQ0gyXVtDSDJdW0NIMl1bQ0gyXVtDQEhdMVtDSDJdT1tDQEBIXShbQ0gzXSlDKD1PKVtOSF1jMltjSF1jKEMoRikoRilGKVtjSF1bbkhdYzI9Tw==

> <s_epik_cmdline>
J2VwaWtfcHl0aG9uJywgJy1waCcsICc3LjAnLCAnLXRuJywgJzgnLCAnLW1hJywgJzIwMCcsICctbWV0YWxfYmluZGluZycsICctaW1hZScsICc8aW5maWxlLm1hZT4nLCAnLW9tYWUnLCAnPG91dGZpbGUubWFlPic=

> <r_lp_tautomer_probability>
0.999

> <r_epik_Ionization_Penalty>
0.00891333

> <r_epik_Ionization_Penalty_Charging>
0.00891323

> <r_epik_Ionization_Penalty_Neutral>
1.00146e-07

> <r_epik_State_Penalty>
0.00674197

> <r_epik_Charging_Adjusted_Penalty>
0.0156552

> <i_epik_Tot_Q>
0

> <i_epik_Tot_abs_Q>
0

> <r_epik_Metal_State_Penalty>
0.321024

> <b_epik_Metal_Only>
0

> <s_lp_Force_Field>
OPLS_2005

> <r_lp_Energy>
24.7831

> <b_lp_Chiralities_Consistent>
1

> <s_lp_Variant>
AV-unprocessed.smi:1550-2

> <Gold.Version>
5.8.1

> <Gold.Id.Protein>
6NUR|6NUR_protein|mol2

> <Gold.PLP.Fitness>
41.3308

> <Gold.PLP.PLP>
-44.6038

> <Gold.PLP.part.hbond>
0.0000

> <Gold.PLP.part.metal>
0.0000

> <Gold.PLP.part.buried>
-5.1421

> <Gold.PLP.part.nonpolar>
-39.3083

> <Gold.PLP.part.repulsive>
0.3603

> <Gold.PLP.ligand.clash>
0.0000

> <Gold.PLP.ligand.torsion>
1.6875

> <Gold.PLP.Chemscore.Hbond>
0.0000

> <Gold.PLP.Chemscore.CHOScore>
0.0000

> <Gold.PLP.Chemscore.Metal>
0.0000

> <Gold.PLP.Chemscore.Internal.Correction>
0.1020

> <Gold.Rescore>
     Score         DG    S(hbond)    S(metal)    S(lipo)     H(rot)  DE(clash)    DE(int)     intcor
     10.80     -13.03       0.00        0.00     105.16       1.86       0.13       2.10       ----

> <Gold.Chemscore.Fitness>
10.7984

> <Gold.Chemscore.DG>
-13.0291

> <Gold.Chemscore.ZeroCoef>
-5.4800

> <Gold.Chemscore.Hbond>
0.0000

> <Gold.Chemscore.Metal>
0.0000

> <Gold.Chemscore.Lipo>
105.1558

> <Gold.Chemscore.Internal_Hbond>
0.0000

> <Gold.Chemscore.DEClash>
0.1303

> <Gold.Chemscore.DEInternal>
2.1004

> <Gold.Chemscore.Rot>
1.8571

> <Gold.Chemscore.Internal.Correction>
   9.000000E+99

> <Gold.Chemscore.Hbond.Weighted>
-0.0000

> <Gold.Chemscore.Metal.Weighted>
-0.0000

> <Gold.Chemscore.Lipo.Weighted>
-12.3032

> <Gold.Chemscore.Internal_Hbond.Weighted>
0.0000

> <Gold.Chemscore.DEClash.Weighted>
0.1303

> <Gold.Chemscore.DEInternal.Weighted>
2.1004

> <Gold.Chemscore.Rot.Weighted>
4.7541

> <Gold.Chemscore.Internal.Correction.Weighted>
   9.000000E+99

> <Gold.Protein.RotatedTorsions>
[ 6907 6896 6895 6894 ] final  -49.93 input  -60.11 | X-H torsion
[ 7974 7965 7964 7962 ] final  141.75 input  175.53 | X-H torsion
[ 8008 7997 7996 7995 ] final  -27.93 input   59.86 | X-H torsion
[ 10167 10162 10161 10158 ] final  -91.41 input  -65.29 | X-H torsion
[ 10718 10713 10712 10709 ] final -117.73 input   66.30 | X-H torsion
[ 10763 10752 10751 10750 ] final  -94.28 input  -60.55 | X-H torsion
[ 11005 11000 10999 10996 ] final   52.33 input  -57.11 | X-H torsion

> <Gold.Protein.ActiveResidues>
 VAL166  LYS551  ARG553  GLY616  TRP617  ASP618  TYR619  PRO620  LYS621  CYS622 
 ASP623  PHE694  ASN695  SER759  ASP760  ASP761  ALA762  ILE779  LEU786  VAL792 
 PHE793  MET794  SER795  GLU796  ALA797  LYS798  CYS799  TRP800  GLU811  SER814 

> <Gold.Protein.RotatedAtoms>
  150.8757  134.8139  159.7187 H   0  0  0  0  0  0  0  0  0  0  0  0  # atno 6907 bound_to 6896
  152.4744  134.4876  159.9695 H   0  0  0  0  0  0  0  0  0  0  0  0  # atno 6908 bound_to 6896
  151.4958  133.3476  159.2896 H   0  0  0  0  0  0  0  0  0  0  0  0  # atno 6909 bound_to 6896
  144.9068  139.5347  143.5727 H   0  0  0  0  0  0  0  0  0  0  0  0  # atno 7974 bound_to 7965
  154.4355  140.1859  156.1009 H   0  0  0  0  0  0  0  0  0  0  0  0  # atno 8008 bound_to 7997
  156.0293  140.3332  155.7096 H   0  0  0  0  0  0  0  0  0  0  0  0  # atno 8009 bound_to 7997
  155.5863  140.0626  157.2761 H   0  0  0  0  0  0  0  0  0  0  0  0  # atno 8010 bound_to 7997
  140.3452  143.2920  151.9790 H   0  0  0  0  0  0  0  0  0  0  0  0  # atno 10167 bound_to 10162
  156.1055  130.6206  150.9201 H   0  0  0  0  0  0  0  0  0  0  0  0  # atno 10718 bound_to 10713
  154.7040  135.5163  153.8567 H   0  0  0  0  0  0  0  0  0  0  0  0  # atno 10763 bound_to 10752
  153.0726  135.6606  154.0223 H   0  0  0  0  0  0  0  0  0  0  0  0  # atno 10764 bound_to 10752
  154.0077  135.3005  155.3375 H   0  0  0  0  0  0  0  0  0  0  0  0  # atno 10765 bound_to 10752
  140.0858  134.5276  155.8901 H   0  0  0  0  0  0  0  0  0  0  0  0  # atno 11005 bound_to 11000
  146.3138  139.7843  142.8999 LP  0  0  0  0  0  0  0  0  0  0  0  0  # atno 17320 bound_to 7965
  145.3522  141.0309  143.3332 LP  0  0  0  0  0  0  0  0  0  0  0  0  # atno 17321 bound_to 7965
  139.4834  144.6123  151.7411 LP  0  0  0  0  0  0  0  0  0  0  0  0  # atno 17342 bound_to 10162
  140.5271  144.0788  150.6041 LP  0  0  0  0  0  0  0  0  0  0  0  0  # atno 17343 bound_to 10162
  157.6231  131.0928  150.8585 LP  0  0  0  0  0  0  0  0  0  0  0  0  # atno 17370 bound_to 10713
  156.8705  130.5144  149.5297 LP  0  0  0  0  0  0  0  0  0  0  0  0  # atno 17371 bound_to 10713
  141.2062  133.6653  156.6227 LP  0  0  0  0  0  0  0  0  0  0  0  0  # atno 17394 bound_to 11000
  140.3422  134.7839  157.4406 LP  0  0  0  0  0  0  0  0  0  0  0  0  # atno 17395 bound_to 11000

$$$$
