AV-unprocessed.smi:3058|AV-procd|sdf|11675|dock7
  -GOLD-   2272017 83D 1   1.00000     0.00000
 Structure written by MMmdl.
 39 41  0  0  0  0  0  0  0  0  2 V2000
  153.0448  140.1884  158.2441 O   0  0  0  0  0  0  0  0  0  0  0  0
  152.7657  141.0838  159.0425 C   0  0  0  0  0  0  0  0  0  0  0  0
  153.4656  141.3010  160.1667 N   0  0  0  0  0  0  0  0  0  0  0  0
  154.6339  140.5357  160.5851 C   0  0  0  0  0  0  0  0  0  0  0  0
  154.4626  139.9729  162.0058 C   0  0  0  0  0  0  0  0  0  0  0  0
  154.6029  141.0470  163.0664 C   0  0  0  0  0  0  0  0  0  0  0  0
  153.8269  142.2255  163.0013 C   0  0  0  0  0  0  0  0  0  0  0  0
  153.9756  143.2071  164.0032 C   0  0  0  0  0  0  0  0  0  0  0  0
  154.8960  142.9875  165.0485 C   0  0  0  0  0  0  0  0  0  0  0  0
  155.6204  141.8470  165.0781 N   0  3  0  0  0  0  0  0  0  0  0  0
  155.5079  140.8833  164.1376 C   0  0  0  0  0  0  0  0  0  0  0  0
  151.5549  142.0055  158.8109 C   0  0  2  0  0  0  0  0  0  0  0  0
  151.4458  142.5833  157.3778 C   0  0  0  0  0  0  0  0  0  0  0  0
  151.3159  144.0984  157.6243 C   0  0  2  0  0  0  0  0  0  0  0  0
  152.6762  144.6656  158.0713 C   0  0  0  0  0  0  0  0  0  0  0  0
  152.7984  144.1531  159.5180 C   0  0  0  0  0  0  0  0  0  0  0  0
  151.5277  143.2898  159.6817 C   0  0  1  0  0  0  0  0  0  0  0  0
  150.5134  144.1380  158.9198 C   0  0  0  0  0  0  0  0  0  0  0  0
  153.1682  142.0520  160.7729 H   0  0  0  0  0  0  0  0  0  0  0  0
  154.8245  139.7304  159.8732 H   0  0  0  0  0  0  0  0  0  0  0  0
  155.5013  141.1951  160.5476 H   0  0  0  0  0  0  0  0  0  0  0  0
  153.4845  139.5003  162.1061 H   0  0  0  0  0  0  0  0  0  0  0  0
  155.2007  139.1926  162.1971 H   0  0  0  0  0  0  0  0  0  0  0  0
  153.1242  142.3762  162.1941 H   0  0  0  0  0  0  0  0  0  0  0  0
  153.3910  144.1151  163.9701 H   0  0  0  0  0  0  0  0  0  0  0  0
  155.0730  143.6832  165.8557 H   0  0  0  0  0  0  0  0  0  0  0  0
  156.1393  140.0168  164.2710 H   0  0  0  0  0  0  0  0  0  0  0  0
  150.6486  141.4316  159.0145 H   0  0  0  0  0  0  0  0  0  0  0  0
  152.2923  142.3492  156.7309 H   0  0  0  0  0  0  0  0  0  0  0  0
  150.5505  142.1999  156.8864 H   0  0  0  0  0  0  0  0  0  0  0  0
  150.8709  144.6395  156.7888 H   0  0  0  0  0  0  0  0  0  0  0  0
  153.4939  144.3195  157.4379 H   0  0  0  0  0  0  0  0  0  0  0  0
  152.6731  145.7560  158.0498 H   0  0  0  0  0  0  0  0  0  0  0  0
  153.7278  143.6159  159.7026 H   0  0  0  0  0  0  0  0  0  0  0  0
  152.7743  144.9920  160.2147 H   0  0  0  0  0  0  0  0  0  0  0  0
  151.2598  143.1024  160.7219 H   0  0  0  0  0  0  0  0  0  0  0  0
  150.3948  145.1446  159.3253 H   0  0  0  0  0  0  0  0  0  0  0  0
  149.5308  143.6703  158.8348 H   0  0  0  0  0  0  0  0  0  0  0  0
  156.2802  141.7074  165.8438 H   0  0  0  0  0  0  0  0  0  0  0  0
  1  2  2  0  0  0  0
  2  3  1  0  0  0  0
  2 12  1  0  0  0  0
  3  4  1  0  0  0  0
  3 19  1  0  0  0  0
  4  5  1  0  0  0  0
  4 20  1  0  0  0  0
  4 21  1  0  0  0  0
  5  6  1  0  0  0  0
  5 22  1  0  0  0  0
  5 23  1  0  0  0  0
  6 11  1  0  0  0  0
  6  7  2  0  0  0  0
  7  8  1  0  0  0  0
  7 24  1  0  0  0  0
  8  9  2  0  0  0  0
  8 25  1  0  0  0  0
  9 10  1  0  0  0  0
  9 26  1  0  0  0  0
 10 11  2  0  0  0  0
 10 39  1  0  0  0  0
 11 27  1  0  0  0  0
 12 17  1  0  0  0  0
 12 13  1  0  0  0  0
 12 28  1  0  0  0  0
 13 14  1  0  0  0  0
 13 29  1  0  0  0  0
 13 30  1  0  0  0  0
 14 18  1  0  0  0  0
 14 15  1  0  0  0  0
 14 31  1  0  0  0  0
 15 16  1  0  0  0  0
 15 32  1  0  0  0  0
 15 33  1  0  0  0  0
 16 17  1  0  0  0  0
 16 34  1  0  0  0  0
 16 35  1  0  0  0  0
 17 18  1  0  0  0  0
 17 36  1  0  0  0  0
 18 37  1  0  0  0  0
 18 38  1  0  0  0  0
M  CHG  1  10   1
M  END
> <s_m_source_file>
AV-unprocessed.smi

> <i_m_source_file_index>
3058

> <i_lp_mmshare_version>
43012

> <i_f3d_flags>
0

> <s_epik_input>
W0NIMl0xW0NIMl1bQ0BIXShbQ0gyXTIpW0NAQEhdKFtDSDJdW0NAQEhdMTIpQyg9TylbTkhdW0NIMl1bQ0gyXWMzW2NIXVtjSF1bY0hdbltjSF0z

> <s_epik_cmdline>
J2VwaWtfcHl0aG9uJywgJy1waCcsICc3LjAnLCAnLXRuJywgJzgnLCAnLW1hJywgJzIwMCcsICctbWV0YWxfYmluZGluZycsICctaW1hZScsICc8aW5maWxlLm1hZT4nLCAnLW9tYWUnLCAnPG91dGZpbGUubWFlPic=

> <r_epik_Ionization_Penalty>
2.24375

> <r_epik_Ionization_Penalty_Charging>
2.24375

> <r_epik_Ionization_Penalty_Neutral>
1.89995e-08

> <r_epik_State_Penalty>
2.39035

> <r_epik_Charging_Adjusted_Penalty>
4.63411

> <i_epik_Tot_Q>
1

> <i_epik_Tot_abs_Q>
1

> <r_epik_Metal_State_Penalty>
2.40369

> <b_epik_Metal_Only>
0

> <s_lp_Force_Field>
OPLS_2005

> <r_lp_Energy>
54.0755

> <b_lp_Chiralities_Consistent>
1

> <s_lp_Variant>
AV-unprocessed.smi:3058-7

> <Gold.Version>
5.8.1

> <Gold.Id.Protein>
6NUR|6NUR_protein|mol2

> <Gold.PLP.Fitness>
42.3548

> <Gold.PLP.PLP>
-40.4335

> <Gold.PLP.part.hbond>
-1.0000

> <Gold.PLP.part.metal>
0.0000

> <Gold.PLP.part.buried>
-0.2389

> <Gold.PLP.part.nonpolar>
-37.2535

> <Gold.PLP.part.repulsive>
0.1043

> <Gold.PLP.ligand.clash>
0.0000

> <Gold.PLP.ligand.torsion>
0.4610

> <Gold.PLP.Chemscore.Hbond>
0.9440

> <Gold.PLP.Chemscore.CHOScore>
0.0000

> <Gold.PLP.Chemscore.Metal>
0.0000

> <Gold.Chemscore.Hbonds>
donor molecule, donor type, donor heavy atom, donor atom, acceptor molecule, acceptor atom, score
      P1  H  7997  8010       L1     1  0.93

> <Gold.PLP.Chemscore.Internal.Correction>
0.0113

> <Gold.Rescore>
     Score         DG    S(hbond)    S(metal)    S(lipo)     H(rot)  DE(clash)    DE(int)     intcor
     19.88     -21.48       0.90        0.00     142.86       1.45       0.30       1.31       ----

> <Gold.Chemscore.Fitness>
19.8783

> <Gold.Chemscore.DG>
-21.4835

> <Gold.Chemscore.ZeroCoef>
-5.4800

> <Gold.Chemscore.Hbond>
0.9021

> <Gold.Chemscore.Metal>
0.0000

> <Gold.Chemscore.Lipo>
142.8603

> <Gold.Chemscore.Internal_Hbond>
0.0000

> <Gold.Chemscore.DEClash>
0.2964

> <Gold.Chemscore.DEInternal>
1.3088

> <Gold.Chemscore.Rot>
1.4548

> <Gold.Chemscore.Internal.Correction>
   9.000000E+99

> <Gold.Chemscore.Hbonds>
donor molecule, donor type, donor heavy atom, donor atom, acceptor molecule, acceptor atom, score
      P1  H  7997  8010       L1     1  0.87

> <Gold.Chemscore.Hbond.Weighted>
-3.0130

> <Gold.Chemscore.Metal.Weighted>
-0.0000

> <Gold.Chemscore.Lipo.Weighted>
-16.7147

> <Gold.Chemscore.Internal_Hbond.Weighted>
0.0000

> <Gold.Chemscore.DEClash.Weighted>
0.2964

> <Gold.Chemscore.DEInternal.Weighted>
1.3088

> <Gold.Chemscore.Rot.Weighted>
3.7242

> <Gold.Chemscore.Internal.Correction.Weighted>
   9.000000E+99

> <Gold.Protein.RotatedTorsions>
[ 6907 6896 6895 6894 ] final  102.45 input  -60.11 | X-H torsion
[ 7974 7965 7964 7962 ] final -139.82 input  175.53 | X-H torsion
[ 8008 7997 7996 7995 ] final   28.60 input   59.86 | X-H torsion
[ 10167 10162 10161 10158 ] final  -82.03 input  -65.29 | X-H torsion
[ 10718 10713 10712 10709 ] final -174.85 input   66.30 | X-H torsion
[ 10763 10752 10751 10750 ] final  100.92 input  -60.55 | X-H torsion
[ 11005 11000 10999 10996 ] final  149.26 input  -57.11 | X-H torsion

> <Gold.Protein.ActiveResidues>
 VAL166  LYS551  ARG553  GLY616  TRP617  ASP618  TYR619  PRO620  LYS621  CYS622 
 ASP623  PHE694  ASN695  SER759  ASP760  ASP761  ALA762  ILE779  LEU786  VAL792 
 PHE793  MET794  SER795  GLU796  ALA797  LYS798  CYS799  TRP800  GLU811  SER814 

> <Gold.Protein.RotatedAtoms>
  152.5323  133.9974  159.7878 H   0  0  0  0  0  0  0  0  0  0  0  0  # atno 6907 bound_to 6896
  151.0199  133.5879  159.2679 H   0  0  0  0  0  0  0  0  0  0  0  0  # atno 6908 bound_to 6896
  151.2922  135.0752  159.9262 H   0  0  0  0  0  0  0  0  0  0  0  0  # atno 6909 bound_to 6896
  144.8646  140.6274  143.5306 H   0  0  0  0  0  0  0  0  0  0  0  0  # atno 7974 bound_to 7965
  155.0612  140.3190  155.4660 H   0  0  0  0  0  0  0  0  0  0  0  0  # atno 8008 bound_to 7997
  156.2812  140.2128  156.5683 H   0  0  0  0  0  0  0  0  0  0  0  0  # atno 8009 bound_to 7997
  154.7131  140.0496  157.0556 H   0  0  0  0  0  0  0  0  0  0  0  0  # atno 8010 bound_to 7997
  140.4357  143.2532  151.8696 H   0  0  0  0  0  0  0  0  0  0  0  0  # atno 10167 bound_to 10162
  156.7912  130.9518  151.3120 H   0  0  0  0  0  0  0  0  0  0  0  0  # atno 10718 bound_to 10713
  153.3201  135.4062  155.1409 H   0  0  0  0  0  0  0  0  0  0  0  0  # atno 10763 bound_to 10752
  154.8598  135.3585  154.5608 H   0  0  0  0  0  0  0  0  0  0  0  0  # atno 10764 bound_to 10752
  153.6041  135.7070  153.5431 H   0  0  0  0  0  0  0  0  0  0  0  0  # atno 10765 bound_to 10752
  140.1030  134.8972  157.1824 H   0  0  0  0  0  0  0  0  0  0  0  0  # atno 11005 bound_to 11000
  145.4245  139.1558  143.4056 LP  0  0  0  0  0  0  0  0  0  0  0  0  # atno 17320 bound_to 7965
  146.2886  140.4358  142.8748 LP  0  0  0  0  0  0  0  0  0  0  0  0  # atno 17321 bound_to 7965
  139.4787  144.5285  151.8701 LP  0  0  0  0  0  0  0  0  0  0  0  0  # atno 17342 bound_to 10162
  140.4376  144.2031  150.5890 LP  0  0  0  0  0  0  0  0  0  0  0  0  # atno 17343 bound_to 10162
  157.6599  130.8957  149.9809 LP  0  0  0  0  0  0  0  0  0  0  0  0  # atno 17370 bound_to 10713
  156.1158  130.3648  149.9971 LP  0  0  0  0  0  0  0  0  0  0  0  0  # atno 17371 bound_to 10713
  140.3194  134.2933  155.7249 LP  0  0  0  0  0  0  0  0  0  0  0  0  # atno 17394 bound_to 11000
  141.2110  133.7700  156.9890 LP  0  0  0  0  0  0  0  0  0  0  0  0  # atno 17395 bound_to 11000

$$$$
