AV-unprocessed.smi:1879|AV-procd|sdf|7632|dock2
  -GOLD-   22720 9353D 1   1.00000     0.00000
 Structure written by MMmdl.
 46 48  0  0  0  0  0  0  0  0  1 V2000
  145.2815  137.8986  153.5107 O   0  0  0  0  0  0  0  0  0  0  0  0
  146.3426  137.5677  152.9809 C   0  0  0  0  0  0  0  0  0  0  0  0
  147.5010  138.2406  153.0818 N   0  0  0  0  0  0  0  0  0  0  0  0
  147.7586  139.4362  153.8101 C   0  0  0  0  0  0  0  0  0  0  0  0
  146.8007  140.4772  153.8795 C   0  0  0  0  0  0  0  0  0  0  0  0
  147.1243  141.6699  154.5485 C   0  0  0  0  0  0  0  0  0  0  0  0
  148.4049  141.7880  155.1130 C   0  0  0  0  0  0  0  0  0  0  0  0
  149.3327  140.8128  155.0442 N   0  0  0  0  0  0  0  0  0  0  0  0
  149.0310  139.6498  154.4152 C   0  0  0  0  0  0  0  0  0  0  0  0
  150.0405  138.6594  154.3897 N   0  0  0  0  0  0  0  0  0  0  0  0
  151.4225  139.0019  154.7092 C   0  0  0  0  0  0  0  0  0  0  0  0
  152.1154  137.6644  154.9520 C   0  0  0  0  0  0  0  0  0  0  0  0
  151.0142  136.8437  155.6159 C   0  0  0  0  0  0  0  0  0  0  0  0
  149.7324  137.3424  154.9401 C   0  0  0  0  0  0  0  0  0  0  0  0
  146.4881  136.4615  152.2380 N   0  0  0  0  0  0  0  0  0  0  0  0
  145.4298  135.5009  151.9404 C   0  0  2  0  0  0  0  0  0  0  0  0
  145.9023  134.0631  152.2352 C   0  0  0  0  0  0  0  0  0  0  0  0
  144.8238  133.0282  151.8692 C   0  0  0  0  0  0  0  0  0  0  0  0
  144.3448  133.1715  150.4121 C   0  0  2  0  0  0  0  0  0  0  0  0
  145.3656  132.7617  149.5237 O   0  0  0  0  0  0  0  0  0  0  0  0
  143.9173  134.6170  150.0948 C   0  0  0  0  0  0  0  0  0  0  0  0
  145.0027  135.6418  150.4681 C   0  0  0  0  0  0  0  0  0  0  0  0
  148.3130  137.7955  152.6797 H   0  0  0  0  0  0  0  0  0  0  0  0
  145.8327  140.3894  153.4100 H   0  0  0  0  0  0  0  0  0  0  0  0
  146.4123  142.4792  154.6147 H   0  0  0  0  0  0  0  0  0  0  0  0
  148.6955  142.6916  155.6282 H   0  0  0  0  0  0  0  0  0  0  0  0
  151.8917  139.5606  153.8991 H   0  0  0  0  0  0  0  0  0  0  0  0
  151.4719  139.6048  155.6169 H   0  0  0  0  0  0  0  0  0  0  0  0
  152.3971  137.2111  154.0004 H   0  0  0  0  0  0  0  0  0  0  0  0
  153.0120  137.7548  155.5657 H   0  0  0  0  0  0  0  0  0  0  0  0
  151.1593  135.7685  155.5081 H   0  0  0  0  0  0  0  0  0  0  0  0
  150.9796  137.0727  156.6816 H   0  0  0  0  0  0  0  0  0  0  0  0
  148.8980  137.3736  155.6421 H   0  0  0  0  0  0  0  0  0  0  0  0
  149.4617  136.6749  154.1220 H   0  0  0  0  0  0  0  0  0  0  0  0
  147.3988  136.2678  151.8477 H   0  0  0  0  0  0  0  0  0  0  0  0
  144.5627  135.7224  152.5659 H   0  0  0  0  0  0  0  0  0  0  0  0
  146.8150  133.8516  151.6763 H   0  0  0  0  0  0  0  0  0  0  0  0
  146.1588  133.9599  153.2902 H   0  0  0  0  0  0  0  0  0  0  0  0
  145.1967  132.0191  152.0479 H   0  0  0  0  0  0  0  0  0  0  0  0
  143.9712  133.1585  152.5369 H   0  0  0  0  0  0  0  0  0  0  0  0
  143.4971  132.5052  150.2491 H   0  0  0  0  0  0  0  0  0  0  0  0
  145.3807  133.3556  148.7889 H   0  0  0  0  0  0  0  0  0  0  0  0
  143.6580  134.7130  149.0401 H   0  0  0  0  0  0  0  0  0  0  0  0
  143.0087  134.8481  150.6522 H   0  0  0  0  0  0  0  0  0  0  0  0
  144.6304  136.6502  150.2829 H   0  0  0  0  0  0  0  0  0  0  0  0
  145.8679  135.5095  149.8168 H   0  0  0  0  0  0  0  0  0  0  0  0
  1  2  2  0  0  0  0
  2  3  1  0  0  0  0
  2 15  1  0  0  0  0
  3  4  1  0  0  0  0
  3 23  1  0  0  0  0
  4  9  1  0  0  0  0
  4  5  2  0  0  0  0
  5  6  1  0  0  0  0
  5 24  1  0  0  0  0
  6  7  2  0  0  0  0
  6 25  1  0  0  0  0
  7  8  1  0  0  0  0
  7 26  1  0  0  0  0
  8  9  2  0  0  0  0
  9 10  1  0  0  0  0
 10 14  1  0  0  0  0
 10 11  1  0  0  0  0
 11 12  1  0  0  0  0
 11 27  1  0  0  0  0
 11 28  1  0  0  0  0
 12 13  1  0  0  0  0
 12 29  1  0  0  0  0
 12 30  1  0  0  0  0
 13 14  1  0  0  0  0
 13 31  1  0  0  0  0
 13 32  1  0  0  0  0
 14 33  1  0  0  0  0
 14 34  1  0  0  0  0
 15 16  1  0  0  0  0
 15 35  1  0  0  0  0
 16 22  1  0  0  0  0
 16 17  1  0  0  0  0
 16 36  1  0  0  0  0
 17 18  1  0  0  0  0
 17 37  1  0  0  0  0
 17 38  1  0  0  0  0
 18 19  1  0  0  0  0
 18 39  1  0  0  0  0
 18 40  1  0  0  0  0
 19 20  1  0  0  0  0
 19 21  1  0  0  0  0
 19 41  1  0  0  0  0
 20 42  1  0  0  0  0
 21 22  1  0  0  0  0
 21 43  1  0  0  0  0
 21 44  1  0  0  0  0
 22 45  1  0  0  0  0
 22 46  1  0  0  0  0
M  END
> <s_m_source_file>
AV-unprocessed.smi

> <i_m_source_file_index>
1879

> <i_lp_mmshare_version>
43012

> <i_f3d_flags>
0

> <s_epik_input>
W0NIMl0xW0NIMl1bQ0BIXShbT0hdKVtDSDJdW0NIMl1bQ0BIXTFbTkhdQyg9TylbTkhdYzJbY0hdW2NIXVtjSF1uYzJOM1tDSDJdW0NIMl1bQ0gyXVtDSDJdMw==

> <s_epik_cmdline>
J2VwaWtfcHl0aG9uJywgJy1waCcsICc3LjAnLCAnLXRuJywgJzgnLCAnLW1hJywgJzIwMCcsICctbWV0YWxfYmluZGluZycsICctaW1hZScsICc8aW5maWxlLm1hZT4nLCAnLW9tYWUnLCAnPG91dGZpbGUubWFlPic=

> <r_lp_tautomer_probability>
1

> <r_epik_Ionization_Penalty>
0.104121

> <r_epik_Ionization_Penalty_Charging>
0

> <r_epik_Ionization_Penalty_Neutral>
0.104121

> <r_epik_State_Penalty>
0.0934704

> <r_epik_Charging_Adjusted_Penalty>
0.0934704

> <i_epik_Tot_Q>
0

> <i_epik_Tot_abs_Q>
0

> <r_epik_Metal_State_Penalty>
0.0794466

> <b_epik_Metal_Only>
0

> <s_lp_Force_Field>
OPLS_2005

> <r_lp_Energy>
39.1778

> <b_lp_Chiralities_Consistent>
1

> <s_lp_Variant>
AV-unprocessed.smi:1879-2

> <Gold.Version>
5.8.1

> <Gold.Id.Protein>
6NUR|6NUR_protein|mol2

> <Gold.PLP.Fitness>
42.1517

> <Gold.PLP.PLP>
-31.2659

> <Gold.PLP.part.hbond>
-2.8530

> <Gold.PLP.part.metal>
0.0000

> <Gold.PLP.part.buried>
0.5799

> <Gold.PLP.part.nonpolar>
-30.3542

> <Gold.PLP.part.repulsive>
0.5661

> <Gold.PLP.ligand.clash>
0.0000

> <Gold.PLP.ligand.torsion>
0.5829

> <Gold.PLP.Chemscore.Hbond>
2.9033

> <Gold.PLP.Chemscore.CHOScore>
0.9992

> <Gold.PLP.Chemscore.Metal>
0.0000

> <Gold.Chemscore.Hbonds>
donor molecule, donor type, donor heavy atom, donor atom, acceptor molecule, acceptor atom, score
      L1  H     3    23       P1  7948  0.91
      L1  H    15    35       P1  7948  0.99
      L1  H    20    42       P1  7921  1.00
      L1  C     7    26       P1  8028  1.00

> <Gold.PLP.Chemscore.Internal.Correction>
0.3444

> <Gold.Rescore>
     Score         DG    S(hbond)    S(metal)    S(lipo)     H(rot)  DE(clash)    DE(int)     intcor
     15.25     -18.25       2.09        0.00      86.06       1.67       1.30       1.70       ----

> <Gold.Chemscore.Fitness>
15.2531

> <Gold.Chemscore.DG>
-18.2496

> <Gold.Chemscore.ZeroCoef>
-5.4800

> <Gold.Chemscore.Hbond>
2.0902

> <Gold.Chemscore.Metal>
0.0000

> <Gold.Chemscore.Lipo>
86.0638

> <Gold.Chemscore.Internal_Hbond>
0.0000

> <Gold.Chemscore.DEClash>
1.2956

> <Gold.Chemscore.DEInternal>
1.7009

> <Gold.Chemscore.Rot>
1.6723

> <Gold.Chemscore.Internal.Correction>
   9.000000E+99

> <Gold.Chemscore.Hbonds>
donor molecule, donor type, donor heavy atom, donor atom, acceptor molecule, acceptor atom, score
      L1  H     3    23       P1  7948  0.90
      L1  H    15    35       P1  7948  0.91
      L1  H    20    42       P1  7921  0.29

> <Gold.Chemscore.Hbond.Weighted>
-6.9813

> <Gold.Chemscore.Metal.Weighted>
-0.0000

> <Gold.Chemscore.Lipo.Weighted>
-10.0695

> <Gold.Chemscore.Internal_Hbond.Weighted>
0.0000

> <Gold.Chemscore.DEClash.Weighted>
1.2956

> <Gold.Chemscore.DEInternal.Weighted>
1.7009

> <Gold.Chemscore.Rot.Weighted>
4.2812

> <Gold.Chemscore.Internal.Correction.Weighted>
   9.000000E+99

> <Gold.Protein.RotatedTorsions>
[ 6907 6896 6895 6894 ] final -165.78 input  -60.11 | X-H torsion
[ 7974 7965 7964 7962 ] final  -93.33 input  175.53 | X-H torsion
[ 8008 7997 7996 7995 ] final -153.88 input   59.86 | X-H torsion
[ 10167 10162 10161 10158 ] final  177.55 input  -65.29 | X-H torsion
[ 10718 10713 10712 10709 ] final -170.80 input   66.30 | X-H torsion
[ 10763 10752 10751 10750 ] final -147.11 input  -60.55 | X-H torsion
[ 11005 11000 10999 10996 ] final  -10.17 input  -57.11 | X-H torsion

> <Gold.Protein.ActiveResidues>
 VAL166  LYS551  ARG553  GLY616  TRP617  ASP618  TYR619  PRO620  LYS621  CYS622 
 ASP623  PHE694  ASN695  SER759  ASP760  ASP761  ALA762  ILE779  LEU786  VAL792 
 PHE793  MET794  SER795  GLU796  ALA797  LYS798  CYS799  TRP800  GLU811  SER814 

> <Gold.Protein.RotatedAtoms>
  151.4331  133.3664  159.2771 H   0  0  0  0  0  0  0  0  0  0  0  0  # atno 6907 bound_to 6896
  150.9211  134.8630  159.7500 H   0  0  0  0  0  0  0  0  0  0  0  0  # atno 6908 bound_to 6896
  152.4982  134.4269  159.9551 H   0  0  0  0  0  0  0  0  0  0  0  0  # atno 6909 bound_to 6896
  145.3879  140.9525  143.2357 H   0  0  0  0  0  0  0  0  0  0  0  0  # atno 7974 bound_to 7965
  155.6777  140.0740  157.2496 H   0  0  0  0  0  0  0  0  0  0  0  0  # atno 8008 bound_to 7997
  154.4111  140.1687  156.2000 H   0  0  0  0  0  0  0  0  0  0  0  0  # atno 8009 bound_to 7997
  155.9562  140.3373  155.6453 H   0  0  0  0  0  0  0  0  0  0  0  0  # atno 8010 bound_to 7997
  139.5258  144.2784  152.0568 H   0  0  0  0  0  0  0  0  0  0  0  0  # atno 10167 bound_to 10162
  156.7315  130.9308  151.3104 H   0  0  0  0  0  0  0  0  0  0  0  0  # atno 10718 bound_to 10713
  154.8302  135.3368  154.6768 H   0  0  0  0  0  0  0  0  0  0  0  0  # atno 10763 bound_to 10752
  153.7388  135.6947  153.4976 H   0  0  0  0  0  0  0  0  0  0  0  0  # atno 10764 bound_to 10752
  153.2259  135.4433  155.0492 H   0  0  0  0  0  0  0  0  0  0  0  0  # atno 10765 bound_to 10752
  140.7419  133.8663  155.8974 H   0  0  0  0  0  0  0  0  0  0  0  0  # atno 11005 bound_to 11000
  144.8461  139.5395  143.6878 LP  0  0  0  0  0  0  0  0  0  0  0  0  # atno 17320 bound_to 7965
  146.2811  139.6880  142.9228 LP  0  0  0  0  0  0  0  0  0  0  0  0  # atno 17321 bound_to 7965
  140.2241  144.4436  150.6329 LP  0  0  0  0  0  0  0  0  0  0  0  0  # atno 17342 bound_to 10162
  140.6399  143.2201  151.6313 LP  0  0  0  0  0  0  0  0  0  0  0  0  # atno 17343 bound_to 10162
  157.6856  130.9183  150.0379 LP  0  0  0  0  0  0  0  0  0  0  0  0  # atno 17370 bound_to 10713
  156.1525  130.3642  149.9417 LP  0  0  0  0  0  0  0  0  0  0  0  0  # atno 17371 bound_to 10713
  140.9829  134.1381  157.4478 LP  0  0  0  0  0  0  0  0  0  0  0  0  # atno 17394 bound_to 11000
  139.8804  135.0016  156.6078 LP  0  0  0  0  0  0  0  0  0  0  0  0  # atno 17395 bound_to 11000

$$$$
