AV-unprocessed.smi:35|AV-procd|sdf|248|dock9
  -GOLD-   2262016 13D 1   1.00000     0.00000
 Structure written by MMmdl.
 29 30  0  0  0  0  0  0  0  0  1 V2000
  146.6629  139.4817  152.5260 O   0  0  0  0  0  0  0  0  0  0  0  0
  147.5965  139.7742  153.2699 C   0  0  0  0  0  0  0  0  0  0  0  0
  148.6806  138.9038  153.4185 N   0  0  0  0  0  0  0  0  0  0  0  0
  149.7941  139.1261  154.2317 C   0  0  0  0  0  0  0  0  0  0  0  0
  150.6822  138.2777  154.3020 O   0  0  0  0  0  0  0  0  0  0  0  0
  149.8317  140.3389  154.9562 N   0  0  0  0  0  0  0  0  0  0  0  0
  151.0111  140.6383  155.8567 C   0  0  1  0  0  0  0  0  0  0  0  0
  150.9643  141.9873  156.2117 O   0  0  0  0  0  0  0  0  0  0  0  0
  151.3225  142.1245  157.5808 C   0  0  1  0  0  0  0  0  0  0  0  0
  150.8519  143.4766  158.1455 C   0  0  0  0  0  0  0  0  0  0  0  0
  151.2237  144.5254  157.2769 O   0  0  0  0  0  0  0  0  0  0  0  0
  150.7600  140.8555  158.2378 C   0  0  1  0  0  0  0  0  0  0  0  0
  149.3852  141.0059  158.5506 O   0  0  0  0  0  0  0  0  0  0  0  0
  151.0051  139.8040  157.1578 C   0  0  1  0  0  0  0  0  0  0  0  0
  150.0815  138.7282  157.1973 O   0  0  0  0  0  0  0  0  0  0  0  0
  148.7725  141.2299  154.8472 C   0  0  0  0  0  0  0  0  0  0  0  0
  147.6975  140.9971  154.0588 C   0  0  0  0  0  0  0  0  0  0  0  0
  146.2907  142.3916  154.0465 Br  0  0  0  0  0  0  0  0  0  0  0  0
  148.6531  138.0395  152.8971 H   0  0  0  0  0  0  0  0  0  0  0  0
  151.9144  140.4839  155.2642 H   0  0  0  0  0  0  0  0  0  0  0  0
  152.4130  142.0837  157.6227 H   0  0  0  0  0  0  0  0  0  0  0  0
  149.7655  143.4807  158.2370 H   0  0  0  0  0  0  0  0  0  0  0  0
  151.2521  143.6610  159.1424 H   0  0  0  0  0  0  0  0  0  0  0  0
  150.5260  144.6610  156.6540 H   0  0  0  0  0  0  0  0  0  0  0  0
  151.2890  140.6148  159.1605 H   0  0  0  0  0  0  0  0  0  0  0  0
  149.3150  141.3949  159.4086 H   0  0  0  0  0  0  0  0  0  0  0  0
  152.0098  139.3972  157.2807 H   0  0  0  0  0  0  0  0  0  0  0  0
  149.5654  138.8058  157.9852 H   0  0  0  0  0  0  0  0  0  0  0  0
  148.7951  142.1494  155.4128 H   0  0  0  0  0  0  0  0  0  0  0  0
  1  2  2  0  0  0  0
  2 17  1  0  0  0  0
  2  3  1  0  0  0  0
  3 19  1  0  0  0  0
  3  4  1  0  0  0  0
  4  5  2  0  0  0  0
  4  6  1  0  0  0  0
  6  7  1  0  0  0  0
  6 16  1  0  0  0  0
  7 14  1  0  0  0  0
  7  8  1  0  0  0  0
  7 20  1  0  0  0  0
  8  9  1  0  0  0  0
  9 10  1  0  0  0  0
  9 12  1  0  0  0  0
  9 21  1  0  0  0  0
 10 11  1  0  0  0  0
 10 22  1  0  0  0  0
 10 23  1  0  0  0  0
 11 24  1  0  0  0  0
 12 13  1  0  0  0  0
 12 14  1  0  0  0  0
 12 25  1  0  0  0  0
 13 26  1  0  0  0  0
 14 15  1  0  0  0  0
 14 27  1  0  0  0  0
 15 28  1  0  0  0  0
 16 17  2  0  0  0  0
 16 29  1  0  0  0  0
 17 18  1  0  0  0  0
M  END
> <s_m_source_file>
AV-unprocessed.smi

> <i_m_source_file_index>
35

> <i_lp_mmshare_version>
43012

> <i_f3d_flags>
0

> <s_epik_input>
Tz1jMVtuSF1jKD1PKW4oW2NIXWMxQnIpW0NAQEhdMk9bQ0BASF0oW0NIMl1bT0hdKVtDQEBIXShbT0hdKVtDQEhdMltPSF0=

> <s_epik_cmdline>
J2VwaWtfcHl0aG9uJywgJy1waCcsICc3LjAnLCAnLXRuJywgJzgnLCAnLW1hJywgJzIwMCcsICctbWV0YWxfYmluZGluZycsICctaW1hZScsICc8aW5maWxlLm1hZT4nLCAnLW9tYWUnLCAnPG91dGZpbGUubWFlPic=

> <r_lp_tautomer_probability>
0.999537

> <r_epik_Ionization_Penalty>
0.10812

> <r_epik_Ionization_Penalty_Charging>
0.108119

> <r_epik_Ionization_Penalty_Neutral>
4.93006e-07

> <r_epik_State_Penalty>
0.0979238

> <r_epik_Charging_Adjusted_Penalty>
0.206043

> <i_epik_Tot_Q>
0

> <i_epik_Tot_abs_Q>
0

> <r_epik_Metal_State_Penalty>
3.07911

> <b_epik_Metal_Only>
0

> <s_epik_Chemistry_Notes>
This compound contains an acetal/aminal-like group ( X-CH(R)-Y where X, Y are N, S, or O) that may be acid/base labile, releasing an aldehyde.

> <s_lp_Force_Field>
OPLS_2005

> <r_lp_Energy>
38.9756

> <b_lp_Chiralities_Consistent>
1

> <s_lp_Variant>
AV-unprocessed.smi:35-2

> <Gold.Version>
5.8.1

> <Gold.Id.Protein>
6NUR|6NUR_protein|mol2

> <Gold.PLP.Fitness>
37.5856

> <Gold.PLP.PLP>
-29.6757

> <Gold.PLP.part.hbond>
-3.5076

> <Gold.PLP.part.metal>
0.0000

> <Gold.PLP.part.buried>
-0.8191

> <Gold.PLP.part.nonpolar>
-24.9398

> <Gold.PLP.part.repulsive>
1.1574

> <Gold.PLP.ligand.clash>
0.0000

> <Gold.PLP.ligand.torsion>
0.4000

> <Gold.PLP.Chemscore.Hbond>
1.9263

> <Gold.PLP.Chemscore.CHOScore>
0.9724

> <Gold.PLP.Chemscore.Metal>
0.0000

> <Gold.Chemscore.Hbonds>
donor molecule, donor type, donor heavy atom, donor atom, acceptor molecule, acceptor atom, score
      L1  H     3    19       P1  7948  0.88
      L1  H    11    24       P1  8028  1.00
      L1  C    16    29       P1  8028  0.89

> <Gold.PLP.Chemscore.Internal.Correction>
0.0139

> <Gold.Rescore>
     Score         DG    S(hbond)    S(metal)    S(lipo)     H(rot)  DE(clash)    DE(int)     intcor
      5.81      -8.12       1.95        0.00      47.24       3.67       0.83       1.48       ----

> <Gold.Chemscore.Fitness>
5.8084

> <Gold.Chemscore.DG>
-8.1194

> <Gold.Chemscore.ZeroCoef>
-5.4800

> <Gold.Chemscore.Hbond>
1.9484

> <Gold.Chemscore.Metal>
0.0000

> <Gold.Chemscore.Lipo>
47.2420

> <Gold.Chemscore.Internal_Hbond>
0.0000

> <Gold.Chemscore.DEClash>
0.8303

> <Gold.Chemscore.DEInternal>
1.4806

> <Gold.Chemscore.Rot>
3.6701

> <Gold.Chemscore.Internal.Correction>
   9.000000E+99

> <Gold.Chemscore.Hbonds>
donor molecule, donor type, donor heavy atom, donor atom, acceptor molecule, acceptor atom, score
      L1  H     3    19       P1  7948  0.86
      L1  H    11    24       P1  8028  0.93

> <Gold.Chemscore.Hbond.Weighted>
-6.5075

> <Gold.Chemscore.Metal.Weighted>
-0.0000

> <Gold.Chemscore.Lipo.Weighted>
-5.5273

> <Gold.Chemscore.Internal_Hbond.Weighted>
0.0000

> <Gold.Chemscore.DEClash.Weighted>
0.8303

> <Gold.Chemscore.DEInternal.Weighted>
1.4806

> <Gold.Chemscore.Rot.Weighted>
9.3955

> <Gold.Chemscore.Internal.Correction.Weighted>
   9.000000E+99

> <Gold.Protein.RotatedTorsions>
[ 6907 6896 6895 6894 ] final   29.53 input  -60.11 | X-H torsion
[ 7974 7965 7964 7962 ] final  -18.56 input  175.53 | X-H torsion
[ 8008 7997 7996 7995 ] final  -27.27 input   59.86 | X-H torsion
[ 10167 10162 10161 10158 ] final -177.75 input  -65.29 | X-H torsion
[ 10718 10713 10712 10709 ] final  -94.54 input   66.30 | X-H torsion
[ 10763 10752 10751 10750 ] final -163.76 input  -60.55 | X-H torsion
[ 11005 11000 10999 10996 ] final    7.98 input  -57.11 | X-H torsion

> <Gold.Protein.ActiveResidues>
 VAL166  LYS551  ARG553  GLY616  TRP617  ASP618  TYR619  PRO620  LYS621  CYS622 
 ASP623  PHE694  ASN695  SER759  ASP760  ASP761  ALA762  ILE779  LEU786  VAL792 
 PHE793  MET794  SER795  GLU796  ALA797  LYS798  CYS799  TRP800  GLU811  SER814 

> <Gold.Protein.RotatedAtoms>
  152.0329  134.9757  160.0572 H   0  0  0  0  0  0  0  0  0  0  0  0  # atno 6907 bound_to 6896
  152.1226  133.4357  159.4691 H   0  0  0  0  0  0  0  0  0  0  0  0  # atno 6908 bound_to 6896
  150.6850  134.2435  159.4525 H   0  0  0  0  0  0  0  0  0  0  0  0  # atno 6909 bound_to 6896
  146.1886  140.3938  142.8467 H   0  0  0  0  0  0  0  0  0  0  0  0  # atno 7974 bound_to 7965
  154.4385  140.1877  156.0906 H   0  0  0  0  0  0  0  0  0  0  0  0  # atno 8008 bound_to 7997
  156.0368  140.3324  155.7174 H   0  0  0  0  0  0  0  0  0  0  0  0  # atno 8009 bound_to 7997
  155.5758  140.0617  157.2786 H   0  0  0  0  0  0  0  0  0  0  0  0  # atno 8010 bound_to 7997
  139.5465  144.2222  152.0997 H   0  0  0  0  0  0  0  0  0  0  0  0  # atno 10167 bound_to 10162
  156.0029  130.5072  150.5942 H   0  0  0  0  0  0  0  0  0  0  0  0  # atno 10718 bound_to 10713
  154.7092  135.3003  154.9223 H   0  0  0  0  0  0  0  0  0  0  0  0  # atno 10763 bound_to 10752
  154.0130  135.6692  153.4771 H   0  0  0  0  0  0  0  0  0  0  0  0  # atno 10764 bound_to 10752
  153.0741  135.5044  154.8280 H   0  0  0  0  0  0  0  0  0  0  0  0  # atno 10765 bound_to 10752
  140.5421  134.0364  155.7907 H   0  0  0  0  0  0  0  0  0  0  0  0  # atno 11005 bound_to 11000
  144.8443  140.6906  143.6209 LP  0  0  0  0  0  0  0  0  0  0  0  0  # atno 17320 bound_to 7965
  145.3862  139.1626  143.4253 LP  0  0  0  0  0  0  0  0  0  0  0  0  # atno 17321 bound_to 7965
  140.1710  144.4936  150.6580 LP  0  0  0  0  0  0  0  0  0  0  0  0  # atno 17342 bound_to 10162
  140.6714  143.2287  151.5615 LP  0  0  0  0  0  0  0  0  0  0  0  0  # atno 17343 bound_to 10162
  157.3801  131.0779  151.1484 LP  0  0  0  0  0  0  0  0  0  0  0  0  # atno 17370 bound_to 10713
  157.2209  130.6481  149.5811 LP  0  0  0  0  0  0  0  0  0  0  0  0  # atno 17371 bound_to 10713
  141.1221  133.9444  157.2709 LP  0  0  0  0  0  0  0  0  0  0  0  0  # atno 17394 bound_to 11000
  139.9498  135.0177  156.8961 LP  0  0  0  0  0  0  0  0  0  0  0  0  # atno 17395 bound_to 11000

$$$$
