AV-unprocessed.smi:3173|AV-procd|sdf|12117|dock3
  -GOLD-   2272017553D 1   1.00000     0.00000
 Structure written by MMmdl.
 35 36  0  0  0  0  0  0  0  0  1 V2000
  154.1755  140.4068  159.2512 O   0  0  0  0  0  0  0  0  0  0  0  0
  153.0825  140.9501  159.4136 C   0  0  0  0  0  0  0  0  0  0  0  0
  152.9443  142.1430  160.3657 C   0  0  0  0  0  0  0  0  0  0  0  0
  151.9164  143.1887  159.8848 C   0  0  2  0  0  0  0  0  0  0  0  0
  152.2309  143.7109  158.5066 C   0  0  0  0  0  0  0  0  0  0  0  0
  152.2356  145.0409  158.4485 C   0  0  0  0  0  0  0  0  0  0  0  0
  151.9275  145.6755  159.7762 C   0  0  0  0  0  0  0  0  0  0  0  0
  151.8571  144.4775  160.7486 C   0  0  0  0  0  0  0  0  0  0  0  0
  151.9647  140.5556  158.7851 N   0  0  0  0  0  0  0  0  0  0  0  0
  151.8905  139.4729  157.8112 C   0  0  0  0  0  0  0  0  0  0  0  0
  152.0175  140.0030  156.3732 C   0  0  0  0  0  0  0  0  0  0  0  0
  150.6789  140.4143  155.7903 C   0  0  0  0  0  0  0  0  0  0  0  0
  149.8106  141.2623  156.5103 C   0  0  0  0  0  0  0  0  0  0  0  0
  148.5802  141.6168  155.9242 C   0  0  0  0  0  0  0  0  0  0  0  0
  148.2675  141.1135  154.6467 C   0  0  0  0  0  0  0  0  0  0  0  0
  149.2042  140.2758  154.0090 C   0  0  0  0  0  0  0  0  0  0  0  0
  150.3870  139.9300  154.5618 N   0  0  0  0  0  0  0  0  0  0  0  0
  152.6704  141.7890  161.3611 H   0  0  0  0  0  0  0  0  0  0  0  0
  153.9254  142.6089  160.4640 H   0  0  0  0  0  0  0  0  0  0  0  0
  150.9251  142.7363  159.8307 H   0  0  0  0  0  0  0  0  0  0  0  0
  152.4109  143.0530  157.6691 H   0  0  0  0  0  0  0  0  0  0  0  0
  152.4199  145.6252  157.5591 H   0  0  0  0  0  0  0  0  0  0  0  0
  152.7067  146.3839  160.0587 H   0  0  0  0  0  0  0  0  0  0  0  0
  150.9761  146.2052  159.7194 H   0  0  0  0  0  0  0  0  0  0  0  0
  150.9550  144.5075  161.3604 H   0  0  0  0  0  0  0  0  0  0  0  0
  152.7064  144.5230  161.4317 H   0  0  0  0  0  0  0  0  0  0  0  0
  151.1084  141.0542  158.9795 H   0  0  0  0  0  0  0  0  0  0  0  0
  152.6640  138.7302  158.0144 H   0  0  0  0  0  0  0  0  0  0  0  0
  150.9332  138.9673  157.9399 H   0  0  0  0  0  0  0  0  0  0  0  0
  152.6919  140.8603  156.3494 H   0  0  0  0  0  0  0  0  0  0  0  0
  152.4657  139.2448  155.7296 H   0  0  0  0  0  0  0  0  0  0  0  0
  150.0798  141.6337  157.4882 H   0  0  0  0  0  0  0  0  0  0  0  0
  147.8893  142.2632  156.4452 H   0  0  0  0  0  0  0  0  0  0  0  0
  147.3331  141.3641  154.1670 H   0  0  0  0  0  0  0  0  0  0  0  0
  148.9980  139.8728  153.0284 H   0  0  0  0  0  0  0  0  0  0  0  0
  1  2  2  0  0  0  0
  2  3  1  0  0  0  0
  2  9  1  0  0  0  0
  3  4  1  0  0  0  0
  3 18  1  0  0  0  0
  3 19  1  0  0  0  0
  4  8  1  0  0  0  0
  4  5  1  0  0  0  0
  4 20  1  0  0  0  0
  5  6  2  0  0  0  0
  5 21  1  0  0  0  0
  6  7  1  0  0  0  0
  6 22  1  0  0  0  0
  7  8  1  0  0  0  0
  7 23  1  0  0  0  0
  7 24  1  0  0  0  0
  8 25  1  0  0  0  0
  8 26  1  0  0  0  0
  9 10  1  0  0  0  0
  9 27  1  0  0  0  0
 10 11  1  0  0  0  0
 10 28  1  0  0  0  0
 10 29  1  0  0  0  0
 11 12  1  0  0  0  0
 11 30  1  0  0  0  0
 11 31  1  0  0  0  0
 12 17  1  0  0  0  0
 12 13  2  0  0  0  0
 13 14  1  0  0  0  0
 13 32  1  0  0  0  0
 14 15  2  0  0  0  0
 14 33  1  0  0  0  0
 15 16  1  0  0  0  0
 15 34  1  0  0  0  0
 16 17  2  0  0  0  0
 16 35  1  0  0  0  0
M  END
> <s_m_source_file>
AV-unprocessed.smi

> <i_m_source_file_index>
3173

> <i_lp_mmshare_version>
43012

> <i_f3d_flags>
0

> <s_epik_input>
W0NIMl0xW0NIMl1bQ0hdPVtDSF1bQ0BIXTFbQ0gyXUMoPU8pW05IXVtDSDJdW0NIMl1jMltjSF1bY0hdW2NIXVtjSF1uMg==

> <s_epik_cmdline>
J2VwaWtfcHl0aG9uJywgJy1waCcsICc3LjAnLCAnLXRuJywgJzgnLCAnLW1hJywgJzIwMCcsICctbWV0YWxfYmluZGluZycsICctaW1hZScsICc8aW5maWxlLm1hZT4nLCAnLW9tYWUnLCAnPG91dGZpbGUubWFlPic=

> <r_epik_Ionization_Penalty>
0.0258754

> <r_epik_Ionization_Penalty_Charging>
0

> <r_epik_Ionization_Penalty_Neutral>
0.0258754

> <r_epik_State_Penalty>
0.0210899

> <r_epik_Charging_Adjusted_Penalty>
0.0210899

> <i_epik_Tot_Q>
0

> <i_epik_Tot_abs_Q>
0

> <r_epik_Metal_State_Penalty>
0.0202045

> <b_epik_Metal_Only>
0

> <s_lp_Force_Field>
OPLS_2005

> <r_lp_Energy>
13.7226

> <b_lp_Chiralities_Consistent>
1

> <s_lp_Variant>
AV-unprocessed.smi:3173-1

> <Gold.Version>
5.8.1

> <Gold.Id.Protein>
6NUR|6NUR_protein|mol2

> <Gold.PLP.Fitness>
48.6073

> <Gold.PLP.PLP>
-41.7088

> <Gold.PLP.part.hbond>
-2.0000

> <Gold.PLP.part.metal>
0.0000

> <Gold.PLP.part.buried>
-1.2620

> <Gold.PLP.part.nonpolar>
-38.3050

> <Gold.PLP.part.repulsive>
0.2183

> <Gold.PLP.ligand.clash>
0.0000

> <Gold.PLP.ligand.torsion>
0.8058

> <Gold.PLP.Chemscore.Hbond>
1.8160

> <Gold.PLP.Chemscore.CHOScore>
1.0000

> <Gold.PLP.Chemscore.Metal>
0.0000

> <Gold.Chemscore.Hbonds>
donor molecule, donor type, donor heavy atom, donor atom, acceptor molecule, acceptor atom, score
      P1  H  7989  7998       L1    17  1.00
      P1  H  7997  8010       L1     1  0.58
      L1  C    16    35       P1  7957  0.85

> <Gold.PLP.Chemscore.Internal.Correction>
0.0621

> <Gold.Rescore>
     Score         DG    S(hbond)    S(metal)    S(lipo)     H(rot)  DE(clash)    DE(int)     intcor
     16.73     -17.71       0.85        0.00     113.29       1.50       0.30       0.69       ----

> <Gold.Chemscore.Fitness>
16.7253

> <Gold.Chemscore.DG>
-17.7079

> <Gold.Chemscore.ZeroCoef>
-5.4800

> <Gold.Chemscore.Hbond>
0.8451

> <Gold.Chemscore.Metal>
0.0000

> <Gold.Chemscore.Lipo>
113.2892

> <Gold.Chemscore.Internal_Hbond>
0.0000

> <Gold.Chemscore.DEClash>
0.2954

> <Gold.Chemscore.DEInternal>
0.6873

> <Gold.Chemscore.Rot>
1.5037

> <Gold.Chemscore.Internal.Correction>
   9.000000E+99

> <Gold.Chemscore.Hbonds>
donor molecule, donor type, donor heavy atom, donor atom, acceptor molecule, acceptor atom, score
      P1  H  7989  7998       L1    17  0.10
      P1  H  7997  8010       L1     1  0.56

> <Gold.Chemscore.Hbond.Weighted>
-2.8225

> <Gold.Chemscore.Metal.Weighted>
-0.0000

> <Gold.Chemscore.Lipo.Weighted>
-13.2548

> <Gold.Chemscore.Internal_Hbond.Weighted>
0.0000

> <Gold.Chemscore.DEClash.Weighted>
0.2954

> <Gold.Chemscore.DEInternal.Weighted>
0.6873

> <Gold.Chemscore.Rot.Weighted>
3.8494

> <Gold.Chemscore.Internal.Correction.Weighted>
   9.000000E+99

> <Gold.Protein.RotatedTorsions>
[ 6907 6896 6895 6894 ] final   78.80 input  -60.11 | X-H torsion
[ 7974 7965 7964 7962 ] final  -40.75 input  175.53 | X-H torsion
[ 8008 7997 7996 7995 ] final   12.91 input   59.86 | X-H torsion
[ 10167 10162 10161 10158 ] final   58.53 input  -65.29 | X-H torsion
[ 10718 10713 10712 10709 ] final  125.83 input   66.30 | X-H torsion
[ 10763 10752 10751 10750 ] final   49.98 input  -60.55 | X-H torsion
[ 11005 11000 10999 10996 ] final  -79.36 input  -57.11 | X-H torsion

> <Gold.Protein.ActiveResidues>
 VAL166  LYS551  ARG553  GLY616  TRP617  ASP618  TYR619  PRO620  LYS621  CYS622 
 ASP623  PHE694  ASN695  SER759  ASP760  ASP761  ALA762  ILE779  LEU786  VAL792 
 PHE793  MET794  SER795  GLU796  ALA797  LYS798  CYS799  TRP800  GLU811  SER814 

> <Gold.Protein.RotatedAtoms>
  152.5174  134.3609  159.9284 H   0  0  0  0  0  0  0  0  0  0  0  0  # atno 6907 bound_to 6896
  151.3561  133.3900  159.2693 H   0  0  0  0  0  0  0  0  0  0  0  0  # atno 6908 bound_to 6896
  150.9688  134.9084  159.7834 H   0  0  0  0  0  0  0  0  0  0  0  0  # atno 6909 bound_to 6896
  146.0275  140.6773  142.9148 H   0  0  0  0  0  0  0  0  0  0  0  0  # atno 7974 bound_to 7965
  154.8271  140.2893  155.5747 H   0  0  0  0  0  0  0  0  0  0  0  0  # atno 8008 bound_to 7997
  156.3002  140.2539  156.3120 H   0  0  0  0  0  0  0  0  0  0  0  0  # atno 8009 bound_to 7997
  154.9273  140.0384  157.2019 H   0  0  0  0  0  0  0  0  0  0  0  0  # atno 8010 bound_to 7997
  140.1862  144.4132  150.6592 H   0  0  0  0  0  0  0  0  0  0  0  0  # atno 10167 bound_to 10162
  157.5471  131.1095  150.8764 H   0  0  0  0  0  0  0  0  0  0  0  0  # atno 10718 bound_to 10713
  152.9785  135.5894  154.4178 H   0  0  0  0  0  0  0  0  0  0  0  0  # atno 10763 bound_to 10752
  154.3806  135.2767  155.2215 H   0  0  0  0  0  0  0  0  0  0  0  0  # atno 10764 bound_to 10752
  154.4131  135.6077  153.6019 H   0  0  0  0  0  0  0  0  0  0  0  0  # atno 10765 bound_to 10752
  141.1667  133.7102  156.8111 H   0  0  0  0  0  0  0  0  0  0  0  0  # atno 11005 bound_to 11000
  144.7016  140.3676  143.7151 LP  0  0  0  0  0  0  0  0  0  0  0  0  # atno 17320 bound_to 7965
  145.7094  139.1681  143.2547 LP  0  0  0  0  0  0  0  0  0  0  0  0  # atno 17321 bound_to 7965
  140.6487  143.2219  151.6128 LP  0  0  0  0  0  0  0  0  0  0  0  0  # atno 17342 bound_to 10162
  139.5275  144.3015  152.1069 LP  0  0  0  0  0  0  0  0  0  0  0  0  # atno 17343 bound_to 10162
  156.9300  130.5346  149.5279 LP  0  0  0  0  0  0  0  0  0  0  0  0  # atno 17370 bound_to 10713
  156.0544  130.5608  150.9060 LP  0  0  0  0  0  0  0  0  0  0  0  0  # atno 17371 bound_to 10713
  140.2187  134.8773  157.3353 LP  0  0  0  0  0  0  0  0  0  0  0  0  # atno 17394 bound_to 11000
  140.2010  134.4254  155.7662 LP  0  0  0  0  0  0  0  0  0  0  0  0  # atno 17395 bound_to 11000

$$$$
