AV-unprocessed.smi:1703|AV-procd|sdf|6877|dock8
  -GOLD-   22720 8 83D 1   1.00000     0.00000
 Structure written by MMmdl.
 50 52  0  0  0  0  0  0  0  0  3 V2000
  143.7361  146.0476  158.2445 C   0  0  0  0  0  0  0  0  0  0  0  0
  144.9910  145.1677  158.2465 C   0  0  2  0  0  0  0  0  0  0  0  0
  144.9229  144.0553  157.1832 C   0  0  0  0  0  0  0  0  0  0  0  0
  146.1187  143.1837  157.2645 N   0  3  2  0  0  0  0  0  0  0  0  0
  146.1294  142.1361  156.2113 C   0  0  0  0  0  0  0  0  0  0  0  0
  147.5420  141.5811  155.9373 C   0  0  2  0  0  0  0  0  0  0  0  0
  148.4868  142.3852  156.6157 O   0  0  0  0  0  0  0  0  0  0  0  0
  147.8950  141.5714  154.4326 C   0  0  0  0  0  0  0  0  0  0  0  0
  148.6201  140.3541  154.0408 N   0  0  0  0  0  0  0  0  0  0  0  0
  148.2321  139.3294  153.2278 C   0  0  0  0  0  0  0  0  0  0  0  0
  146.9261  139.1958  152.5173 C   0  0  0  0  0  0  0  0  0  0  0  0
  146.8954  138.0774  151.6594 O   0  0  0  0  0  0  0  0  0  0  0  0
  149.2597  138.4360  153.1848 N   0  3  0  0  0  0  0  0  0  0  0  0
  150.3174  138.8942  153.9710 C   0  0  0  0  0  0  0  0  0  0  0  0
  151.5640  138.3350  154.2338 C   0  0  0  0  0  0  0  0  0  0  0  0
  152.4173  139.0643  155.0873 C   0  0  0  0  0  0  0  0  0  0  0  0
  152.0213  140.2991  155.6406 C   0  0  0  0  0  0  0  0  0  0  0  0
  150.7553  140.8573  155.3656 C   0  0  0  0  0  0  0  0  0  0  0  0
  149.9151  140.1284  154.5234 C   0  0  0  0  0  0  0  0  0  0  0  0
  146.2750  142.6495  158.6401 C   0  0  0  0  0  0  0  0  0  0  0  0
  146.3052  143.8001  159.6644 C   0  0  2  0  0  0  0  0  0  0  0  0
  146.3871  143.2888  161.1069 C   0  0  0  0  0  0  0  0  0  0  0  0
  145.1158  144.5709  159.5326 O   0  0  0  0  0  0  0  0  0  0  0  0
  143.6013  146.5373  157.2795 H   0  0  0  0  0  0  0  0  0  0  0  0
  143.8049  146.8261  159.0047 H   0  0  0  0  0  0  0  0  0  0  0  0
  142.8407  145.4605  158.4501 H   0  0  0  0  0  0  0  0  0  0  0  0
  145.8586  145.8029  158.0592 H   0  0  0  0  0  0  0  0  0  0  0  0
  144.0234  143.4528  157.3214 H   0  0  0  0  0  0  0  0  0  0  0  0
  144.8604  144.5027  156.1902 H   0  0  0  0  0  0  0  0  0  0  0  0
  145.4510  141.3331  156.5016 H   0  0  0  0  0  0  0  0  0  0  0  0
  145.7337  142.5471  155.2811 H   0  0  0  0  0  0  0  0  0  0  0  0
  147.6369  140.5718  156.3377 H   0  0  0  0  0  0  0  0  0  0  0  0
  148.7307  143.1070  156.0557 H   0  0  0  0  0  0  0  0  0  0  0  0
  147.0123  141.6883  153.8039 H   0  0  0  0  0  0  0  0  0  0  0  0
  148.5418  142.4121  154.1761 H   0  0  0  0  0  0  0  0  0  0  0  0
  146.1190  139.1139  153.2454 H   0  0  0  0  0  0  0  0  0  0  0  0
  146.7390  140.0962  151.9315 H   0  0  0  0  0  0  0  0  0  0  0  0
  147.3779  137.3727  152.0641 H   0  0  0  0  0  0  0  0  0  0  0  0
  151.8702  137.3892  153.8105 H   0  0  0  0  0  0  0  0  0  0  0  0
  153.3948  138.6683  155.3229 H   0  0  0  0  0  0  0  0  0  0  0  0
  152.7030  140.8280  156.2912 H   0  0  0  0  0  0  0  0  0  0  0  0
  150.4661  141.8019  155.8004 H   0  0  0  0  0  0  0  0  0  0  0  0
  145.4507  141.9700  158.8631 H   0  0  0  0  0  0  0  0  0  0  0  0
  147.1947  142.0714  158.7218 H   0  0  0  0  0  0  0  0  0  0  0  0
  147.1694  144.4391  159.4746 H   0  0  0  0  0  0  0  0  0  0  0  0
  147.2916  142.7009  161.2648 H   0  0  0  0  0  0  0  0  0  0  0  0
  145.5306  142.6605  161.3535 H   0  0  0  0  0  0  0  0  0  0  0  0
  146.4047  144.1190  161.8133 H   0  0  0  0  0  0  0  0  0  0  0  0
  146.9151  143.7790  157.0837 H   0  0  0  0  0  0  0  0  0  0  0  0
  149.2340  137.5730  152.6565 H   0  0  0  0  0  0  0  0  0  0  0  0
  1  2  1  0  0  0  0
  1 24  1  0  0  0  0
  1 25  1  0  0  0  0
  1 26  1  0  0  0  0
  2 23  1  0  0  0  0
  2  3  1  0  0  0  0
  2 27  1  0  0  0  0
  3  4  1  0  0  0  0
  3 28  1  0  0  0  0
  3 29  1  0  0  0  0
  4  5  1  0  0  0  0
  4 20  1  0  0  0  0
  4 49  1  0  0  0  0
  5  6  1  0  0  0  0
  5 30  1  0  0  0  0
  5 31  1  0  0  0  0
  6  7  1  0  0  0  0
  6  8  1  0  0  0  0
  6 32  1  0  0  0  0
  7 33  1  0  0  0  0
  8  9  1  0  0  0  0
  8 34  1  0  0  0  0
  8 35  1  0  0  0  0
  9 19  1  0  0  0  0
  9 10  1  0  0  0  0
 10 11  1  0  0  0  0
 10 13  2  0  0  0  0
 11 12  1  0  0  0  0
 11 36  1  0  0  0  0
 11 37  1  0  0  0  0
 12 38  1  0  0  0  0
 13 14  1  0  0  0  0
 13 50  1  0  0  0  0
 14 19  2  0  0  0  0
 14 15  1  0  0  0  0
 15 16  2  0  0  0  0
 15 39  1  0  0  0  0
 16 17  1  0  0  0  0
 16 40  1  0  0  0  0
 17 18  2  0  0  0  0
 17 41  1  0  0  0  0
 18 19  1  0  0  0  0
 18 42  1  0  0  0  0
 20 21  1  0  0  0  0
 20 43  1  0  0  0  0
 20 44  1  0  0  0  0
 21 22  1  0  0  0  0
 21 23  1  0  0  0  0
 21 45  1  0  0  0  0
 22 46  1  0  0  0  0
 22 47  1  0  0  0  0
 22 48  1  0  0  0  0
M  CHG  1   4   1
M  CHG  1  13   1
M  END
> <s_m_source_file>
AV-unprocessed.smi

> <i_m_source_file_index>
1703

> <i_lp_mmshare_version>
43012

> <i_f3d_flags>
0

> <s_epik_input>
W0NIM11bQ0BASF0xW0NIMl1OKFtDSDJdW0NASF0oTzEpW0NIM10pW0NIMl1bQ0BIXShbT0hdKVtDSDJdbihjKG4yKVtDSDJdW09IXSljKGMyMylbY0hdW2NIXVtjSF1bY0hdMw==

> <s_epik_cmdline>
J2VwaWtfcHl0aG9uJywgJy1waCcsICc3LjAnLCAnLXRuJywgJzgnLCAnLW1hJywgJzIwMCcsICctbWV0YWxfYmluZGluZycsICctaW1hZScsICc8aW5maWxlLm1hZT4nLCAnLW9tYWUnLCAnPG91dGZpbGUubWFlPic=

> <r_epik_Ionization_Penalty>
2.22579

> <r_epik_Ionization_Penalty_Charging>
2.22492

> <r_epik_Ionization_Penalty_Neutral>
0.000870007

> <r_epik_State_Penalty>
2.3141

> <r_epik_Charging_Adjusted_Penalty>
4.53902

> <i_epik_Tot_Q>
2

> <i_epik_Tot_abs_Q>
2

> <r_epik_Metal_State_Penalty>
6.36517

> <b_epik_Metal_Only>
0

> <s_lp_Force_Field>
OPLS_2005

> <r_lp_Energy>
31.942

> <b_lp_Chiralities_Consistent>
1

> <s_lp_Variant>
AV-unprocessed.smi:1703-25

> <Gold.Version>
5.8.1

> <Gold.Id.Protein>
6NUR|6NUR_protein|mol2

> <Gold.PLP.Fitness>
50.7148

> <Gold.PLP.PLP>
-40.3289

> <Gold.PLP.part.hbond>
-5.6956

> <Gold.PLP.part.metal>
0.0000

> <Gold.PLP.part.buried>
1.8027

> <Gold.PLP.part.nonpolar>
-36.0039

> <Gold.PLP.part.repulsive>
0.1626

> <Gold.PLP.ligand.clash>
0.0000

> <Gold.PLP.ligand.torsion>
1.5095

> <Gold.PLP.Chemscore.Hbond>
4.4460

> <Gold.PLP.Chemscore.CHOScore>
0.0000

> <Gold.PLP.Chemscore.Metal>
0.0000

> <Gold.Chemscore.Hbonds>
donor molecule, donor type, donor heavy atom, donor atom, acceptor molecule, acceptor atom, score
      L1  H     7    33       P1  8028  1.00
      L1  H    12    38       P1  7948  0.83
      L1  H    13    50       P1  7948  2.00
      P1  H  7954  7966       L1    12  0.28

> <Gold.PLP.Chemscore.Internal.Correction>
0.0668

> <Gold.Rescore>
     Score         DG    S(hbond)    S(metal)    S(lipo)     H(rot)  DE(clash)    DE(int)     intcor
     14.11     -17.16       2.91        0.00      83.15       3.04       1.43       1.62       ----

> <Gold.Chemscore.Fitness>
14.1125

> <Gold.Chemscore.DG>
-17.1638

> <Gold.Chemscore.ZeroCoef>
-5.4800

> <Gold.Chemscore.Hbond>
2.9138

> <Gold.Chemscore.Metal>
0.0000

> <Gold.Chemscore.Lipo>
83.1491

> <Gold.Chemscore.Internal_Hbond>
0.0000

> <Gold.Chemscore.DEClash>
1.4288

> <Gold.Chemscore.DEInternal>
1.6224

> <Gold.Chemscore.Rot>
3.0378

> <Gold.Chemscore.Internal.Correction>
   9.000000E+99

> <Gold.Chemscore.Hbonds>
donor molecule, donor type, donor heavy atom, donor atom, acceptor molecule, acceptor atom, score
      L1  H     7    33       P1  8028  0.97
      L1  H    12    38       P1  7948  0.83
      L1  H    13    50       P1  7948  0.91
      P1  H  7954  7966       L1    12  0.01

> <Gold.Chemscore.Hbond.Weighted>
-9.7320

> <Gold.Chemscore.Metal.Weighted>
-0.0000

> <Gold.Chemscore.Lipo.Weighted>
-9.7284

> <Gold.Chemscore.Internal_Hbond.Weighted>
0.0000

> <Gold.Chemscore.DEClash.Weighted>
1.4288

> <Gold.Chemscore.DEInternal.Weighted>
1.6224

> <Gold.Chemscore.Rot.Weighted>
7.7767

> <Gold.Chemscore.Internal.Correction.Weighted>
   9.000000E+99

> <Gold.Protein.RotatedTorsions>
[ 6907 6896 6895 6894 ] final  123.92 input  -60.11 | X-H torsion
[ 7974 7965 7964 7962 ] final  -26.02 input  175.53 | X-H torsion
[ 8008 7997 7996 7995 ] final   85.65 input   59.86 | X-H torsion
[ 10167 10162 10161 10158 ] final   75.01 input  -65.29 | X-H torsion
[ 10718 10713 10712 10709 ] final   -5.38 input   66.30 | X-H torsion
[ 10763 10752 10751 10750 ] final  -31.64 input  -60.55 | X-H torsion
[ 11005 11000 10999 10996 ] final  -74.42 input  -57.11 | X-H torsion

> <Gold.Protein.ActiveResidues>
 VAL166  LYS551  ARG553  GLY616  TRP617  ASP618  TYR619  PRO620  LYS621  CYS622 
 ASP623  PHE694  ASN695  SER759  ASP760  ASP761  ALA762  ILE779  LEU786  VAL792 
 PHE793  MET794  SER795  GLU796  ALA797  LYS798  CYS799  TRP800  GLU811  SER814 

> <Gold.Protein.RotatedAtoms>
  152.4122  133.6981  159.6407 H   0  0  0  0  0  0  0  0  0  0  0  0  # atno 6907 bound_to 6896
  150.8001  133.8604  159.3239 H   0  0  0  0  0  0  0  0  0  0  0  0  # atno 6908 bound_to 6896
  151.6344  135.1021  160.0180 H   0  0  0  0  0  0  0  0  0  0  0  0  # atno 6909 bound_to 6896
  146.1453  140.4964  142.8634 H   0  0  0  0  0  0  0  0  0  0  0  0  # atno 7974 bound_to 7965
  155.9528  140.3399  155.6422 H   0  0  0  0  0  0  0  0  0  0  0  0  # atno 8008 bound_to 7997
  155.6899  140.0747  157.2471 H   0  0  0  0  0  0  0  0  0  0  0  0  # atno 8009 bound_to 7997
  154.4125  140.1659  156.2062 H   0  0  0  0  0  0  0  0  0  0  0  0  # atno 8010 bound_to 7997
  140.0076  144.5639  150.7685 H   0  0  0  0  0  0  0  0  0  0  0  0  # atno 10167 bound_to 10162
  156.7475  130.5229  149.5811 H   0  0  0  0  0  0  0  0  0  0  0  0  # atno 10718 bound_to 10713
  153.8007  135.6890  153.4856 H   0  0  0  0  0  0  0  0  0  0  0  0  # atno 10763 bound_to 10752
  153.1690  135.4550  154.9875 H   0  0  0  0  0  0  0  0  0  0  0  0  # atno 10764 bound_to 10752
  154.8007  135.3337  154.7496 H   0  0  0  0  0  0  0  0  0  0  0  0  # atno 10765 bound_to 10752
  141.1635  133.6911  156.7362 H   0  0  0  0  0  0  0  0  0  0  0  0  # atno 11005 bound_to 11000
  144.7839  140.5897  143.6587 LP  0  0  0  0  0  0  0  0  0  0  0  0  # atno 17320 bound_to 7965
  145.4952  139.1486  143.3688 LP  0  0  0  0  0  0  0  0  0  0  0  0  # atno 17321 bound_to 7965
  140.7394  143.2791  151.3652 LP  0  0  0  0  0  0  0  0  0  0  0  0  # atno 17342 bound_to 10162
  139.6228  144.0874  152.2407 LP  0  0  0  0  0  0  0  0  0  0  0  0  # atno 17343 bound_to 10162
  156.1424  130.6253  151.0485 LP  0  0  0  0  0  0  0  0  0  0  0  0  # atno 17370 bound_to 10713
  157.6792  131.0842  150.7415 LP  0  0  0  0  0  0  0  0  0  0  0  0  # atno 17371 bound_to 10713
  140.2708  134.8393  157.3845 LP  0  0  0  0  0  0  0  0  0  0  0  0  # atno 17394 bound_to 11000
  140.1523  134.4834  155.7952 LP  0  0  0  0  0  0  0  0  0  0  0  0  # atno 17395 bound_to 11000

$$$$
