AV-unprocessed.smi:2297|AV-procd|sdf|9223|dock7
  -GOLD-   2272012443D 1   1.00000     0.00000
 Structure written by MMmdl.
 44 45  0  0  0  0  0  0  0  0  1 V2000
  153.7096  141.3367  161.4381 C   0  0  0  0  0  0  0  0  0  0  0  0
  152.8901  142.0326  160.3705 C   0  0  0  0  0  0  0  0  0  0  0  0
  152.7227  143.4314  160.4008 C   0  0  0  0  0  0  0  0  0  0  0  0
  151.9619  144.0733  159.4046 C   0  0  0  0  0  0  0  0  0  0  0  0
  151.7838  145.5773  159.4452 C   0  0  0  0  0  0  0  0  0  0  0  0
  151.3697  143.3108  158.3769 C   0  0  0  0  0  0  0  0  0  0  0  0
  151.5262  141.9103  158.3328 C   0  0  0  0  0  0  0  0  0  0  0  0
  150.9127  141.2465  157.2924 O   0  0  0  0  0  0  0  0  0  0  0  0
  150.6829  141.9557  156.0816 C   0  0  0  0  0  0  0  0  0  0  0  0
  149.8459  141.0745  155.1415 C   0  0  1  0  0  0  0  0  0  0  0  0
  150.6738  140.0063  154.7280 O   0  0  0  0  0  0  0  0  0  0  0  0
  148.5910  140.5007  155.8386 C   0  0  0  0  0  0  0  0  0  0  0  0
  147.5061  141.4921  155.9278 N   0  0  0  0  0  0  0  0  0  0  0  0
  147.0484  141.7994  157.2203 C   0  0  0  0  0  0  0  0  0  0  0  0
  146.1018  142.6570  157.4200 N   0  0  0  0  0  0  0  0  0  0  0  0
  145.5108  143.3076  156.3332 C   0  0  0  0  0  0  0  0  0  0  0  0
  144.4096  144.2940  156.6794 C   0  0  0  0  0  0  0  0  0  0  0  0
  145.9127  143.0598  155.0567 C   0  0  0  0  0  0  0  0  0  0  0  0
  145.3051  143.7376  153.8348 C   0  0  0  0  0  0  0  0  0  0  0  0
  146.9903  142.0868  154.8139 C   0  0  0  0  0  0  0  0  0  0  0  0
  147.4055  141.8192  153.6848 O   0  0  0  0  0  0  0  0  0  0  0  0
  152.2941  141.2756  159.3415 C   0  0  0  0  0  0  0  0  0  0  0  0
  154.0506  142.0385  162.1999 H   0  0  0  0  0  0  0  0  0  0  0  0
  154.5855  140.8636  160.9932 H   0  0  0  0  0  0  0  0  0  0  0  0
  153.1151  140.5655  161.9288 H   0  0  0  0  0  0  0  0  0  0  0  0
  153.1774  144.0150  161.1884 H   0  0  0  0  0  0  0  0  0  0  0  0
  151.2311  145.9377  158.5772 H   0  0  0  0  0  0  0  0  0  0  0  0
  152.7546  146.0734  159.4597 H   0  0  0  0  0  0  0  0  0  0  0  0
  151.2360  145.8673  160.3422 H   0  0  0  0  0  0  0  0  0  0  0  0
  150.7861  143.8012  157.6114 H   0  0  0  0  0  0  0  0  0  0  0  0
  150.1399  142.8768  156.3007 H   0  0  0  0  0  0  0  0  0  0  0  0
  151.6278  142.2234  155.6053 H   0  0  0  0  0  0  0  0  0  0  0  0
  149.5716  141.6599  154.2629 H   0  0  0  0  0  0  0  0  0  0  0  0
  150.6505  139.3329  155.3905 H   0  0  0  0  0  0  0  0  0  0  0  0
  148.2643  139.5813  155.3493 H   0  0  0  0  0  0  0  0  0  0  0  0
  148.8502  140.1795  156.8496 H   0  0  0  0  0  0  0  0  0  0  0  0
  147.5493  141.2703  158.0330 H   0  0  0  0  0  0  0  0  0  0  0  0
  143.4687  143.9945  156.2170 H   0  0  0  0  0  0  0  0  0  0  0  0
  144.6688  145.2934  156.3294 H   0  0  0  0  0  0  0  0  0  0  0  0
  144.2501  144.3491  157.7571 H   0  0  0  0  0  0  0  0  0  0  0  0
  146.0747  144.2782  153.2830 H   0  0  0  0  0  0  0  0  0  0  0  0
  144.5199  144.4492  154.0842 H   0  0  0  0  0  0  0  0  0  0  0  0
  144.8714  142.9916  153.1682 H   0  0  0  0  0  0  0  0  0  0  0  0
  152.4425  140.2063  159.3448 H   0  0  0  0  0  0  0  0  0  0  0  0
  1  2  1  0  0  0  0
  1 23  1  0  0  0  0
  1 24  1  0  0  0  0
  1 25  1  0  0  0  0
  2 22  1  0  0  0  0
  2  3  2  0  0  0  0
  3  4  1  0  0  0  0
  3 26  1  0  0  0  0
  4  5  1  0  0  0  0
  4  6  2  0  0  0  0
  5 27  1  0  0  0  0
  5 28  1  0  0  0  0
  5 29  1  0  0  0  0
  6  7  1  0  0  0  0
  6 30  1  0  0  0  0
  7  8  1  0  0  0  0
  7 22  2  0  0  0  0
  8  9  1  0  0  0  0
  9 10  1  0  0  0  0
  9 31  1  0  0  0  0
  9 32  1  0  0  0  0
 10 11  1  0  0  0  0
 10 12  1  0  0  0  0
 10 33  1  0  0  0  0
 11 34  1  0  0  0  0
 12 13  1  0  0  0  0
 12 35  1  0  0  0  0
 12 36  1  0  0  0  0
 13 20  1  0  0  0  0
 13 14  1  0  0  0  0
 14 15  2  0  0  0  0
 14 37  1  0  0  0  0
 15 16  1  0  0  0  0
 16 17  1  0  0  0  0
 16 18  2  0  0  0  0
 17 38  1  0  0  0  0
 17 39  1  0  0  0  0
 17 40  1  0  0  0  0
 18 19  1  0  0  0  0
 18 20  1  0  0  0  0
 19 41  1  0  0  0  0
 19 42  1  0  0  0  0
 19 43  1  0  0  0  0
 20 21  2  0  0  0  0
 22 44  1  0  0  0  0
M  END
> <s_m_source_file>
AV-unprocessed.smi

> <i_m_source_file_index>
2297

> <i_lp_mmshare_version>
43012

> <i_f3d_flags>
0

> <s_epik_input>
W0NIM11jMVtjSF1jKFtDSDNdKVtjSF1jKFtjSF0xKU9bQ0gyXVtDQEhdKFtPSF0pW0NIMl1uMltjSF1uYyhbQ0gzXSljKFtDSDNdKWMyPU8=

> <s_epik_cmdline>
J2VwaWtfcHl0aG9uJywgJy1waCcsICc3LjAnLCAnLXRuJywgJzgnLCAnLW1hJywgJzIwMCcsICctbWV0YWxfYmluZGluZycsICctaW1hZScsICc8aW5maWxlLm1hZT4nLCAnLW9tYWUnLCAnPG91dGZpbGUubWFlPic=

> <r_lp_tautomer_probability>
1

> <r_epik_Ionization_Penalty>
3.72236e-05

> <r_epik_Ionization_Penalty_Charging>
8.38864e-08

> <r_epik_Ionization_Penalty_Neutral>
3.71397e-05

> <r_epik_State_Penalty>
-0

> <r_epik_Charging_Adjusted_Penalty>
8.38864e-08

> <i_epik_Tot_Q>
0

> <i_epik_Tot_abs_Q>
0

> <r_epik_Metal_State_Penalty>
-0

> <b_epik_Metal_Only>
0

> <s_lp_Force_Field>
OPLS_2005

> <r_lp_Energy>
22.4286

> <b_lp_Chiralities_Consistent>
1

> <s_lp_Variant>
AV-unprocessed.smi:2297-2

> <Gold.Version>
5.8.1

> <Gold.Id.Protein>
6NUR|6NUR_protein|mol2

> <Gold.PLP.Fitness>
48.4033

> <Gold.PLP.PLP>
-46.4985

> <Gold.PLP.part.hbond>
-1.0000

> <Gold.PLP.part.metal>
0.0000

> <Gold.PLP.part.buried>
-6.4947

> <Gold.PLP.part.nonpolar>
-39.3085

> <Gold.PLP.part.repulsive>
0.3237

> <Gold.PLP.ligand.clash>
0.0000

> <Gold.PLP.ligand.torsion>
0.5824

> <Gold.PLP.Chemscore.Hbond>
1.0000

> <Gold.PLP.Chemscore.CHOScore>
0.0000

> <Gold.PLP.Chemscore.Metal>
0.0000

> <Gold.Chemscore.Hbonds>
donor molecule, donor type, donor heavy atom, donor atom, acceptor molecule, acceptor atom, score
      P1  H  7989  7998       L1    11  0.95

> <Gold.PLP.Chemscore.Internal.Correction>
0.0696

> <Gold.Rescore>
     Score         DG    S(hbond)    S(metal)    S(lipo)     H(rot)  DE(clash)    DE(int)     intcor
     15.73     -16.78       0.87        0.00     122.55       2.32       0.40       0.65       ----

> <Gold.Chemscore.Fitness>
15.7254

> <Gold.Chemscore.DG>
-16.7816

> <Gold.Chemscore.ZeroCoef>
-5.4800

> <Gold.Chemscore.Hbond>
0.8716

> <Gold.Chemscore.Metal>
0.0000

> <Gold.Chemscore.Lipo>
122.5533

> <Gold.Chemscore.Internal_Hbond>
0.0000

> <Gold.Chemscore.DEClash>
0.4032

> <Gold.Chemscore.DEInternal>
0.6529

> <Gold.Chemscore.Rot>
2.3236

> <Gold.Chemscore.Internal.Correction>
   9.000000E+99

> <Gold.Chemscore.Hbonds>
donor molecule, donor type, donor heavy atom, donor atom, acceptor molecule, acceptor atom, score
      P1  H  7989  7998       L1    11  0.22

> <Gold.Chemscore.Hbond.Weighted>
-2.9112

> <Gold.Chemscore.Metal.Weighted>
-0.0000

> <Gold.Chemscore.Lipo.Weighted>
-14.3387

> <Gold.Chemscore.Internal_Hbond.Weighted>
0.0000

> <Gold.Chemscore.DEClash.Weighted>
0.4032

> <Gold.Chemscore.DEInternal.Weighted>
0.6529

> <Gold.Chemscore.Rot.Weighted>
5.9484

> <Gold.Chemscore.Internal.Correction.Weighted>
   9.000000E+99

> <Gold.Protein.RotatedTorsions>
[ 6907 6896 6895 6894 ] final -155.62 input  -60.11 | X-H torsion
[ 7974 7965 7964 7962 ] final   -6.74 input  175.53 | X-H torsion
[ 8008 7997 7996 7995 ] final  -41.53 input   59.86 | X-H torsion
[ 10167 10162 10161 10158 ] final  -57.30 input  -65.29 | X-H torsion
[ 10718 10713 10712 10709 ] final   98.65 input   66.30 | X-H torsion
[ 10763 10752 10751 10750 ] final   31.95 input  -60.55 | X-H torsion
[ 11005 11000 10999 10996 ] final -101.55 input  -57.11 | X-H torsion

> <Gold.Protein.ActiveResidues>
 VAL166  LYS551  ARG553  GLY616  TRP617  ASP618  TYR619  PRO620  LYS621  CYS622 
 ASP623  PHE694  ASN695  SER759  ASP760  ASP761  ALA762  ILE779  LEU786  VAL792 
 PHE793  MET794  SER795  GLU796  ALA797  LYS798  CYS799  TRP800  GLU811  SER814 

> <Gold.Protein.RotatedAtoms>
  151.2753  133.4235  159.2623 H   0  0  0  0  0  0  0  0  0  0  0  0  # atno 6907 bound_to 6896
  151.0408  134.9606  159.8171 H   0  0  0  0  0  0  0  0  0  0  0  0  # atno 6908 bound_to 6896
  152.5365  134.2711  159.9024 H   0  0  0  0  0  0  0  0  0  0  0  0  # atno 6909 bound_to 6896
  146.2324  140.2216  142.8337 H   0  0  0  0  0  0  0  0  0  0  0  0  # atno 7974 bound_to 7965
  154.4003  140.1497  156.3206 H   0  0  0  0  0  0  0  0  0  0  0  0  # atno 8008 bound_to 7997
  155.8533  140.3457  155.5686 H   0  0  0  0  0  0  0  0  0  0  0  0  # atno 8009 bound_to 7997
  155.7960  140.0863  157.1973 H   0  0  0  0  0  0  0  0  0  0  0  0  # atno 8010 bound_to 7997
  140.6266  143.2441  151.5348 H   0  0  0  0  0  0  0  0  0  0  0  0  # atno 10167 bound_to 10162
  157.6891  131.0646  150.4828 H   0  0  0  0  0  0  0  0  0  0  0  0  # atno 10718 bound_to 10713
  153.0288  135.6426  154.1278 H   0  0  0  0  0  0  0  0  0  0  0  0  # atno 10763 bound_to 10752
  154.1004  135.2860  155.3254 H   0  0  0  0  0  0  0  0  0  0  0  0  # atno 10764 bound_to 10752
  154.6403  135.5462  153.7844 H   0  0  0  0  0  0  0  0  0  0  0  0  # atno 10765 bound_to 10752
  141.1226  133.8487  157.1247 H   0  0  0  0  0  0  0  0  0  0  0  0  # atno 11005 bound_to 11000
  144.9628  140.8292  143.5503 LP  0  0  0  0  0  0  0  0  0  0  0  0  # atno 17320 bound_to 7965
  145.2188  139.2169  143.5104 LP  0  0  0  0  0  0  0  0  0  0  0  0  # atno 17321 bound_to 7965
  139.5485  144.2457  152.1488 LP  0  0  0  0  0  0  0  0  0  0  0  0  # atno 17342 bound_to 10162
  140.1690  144.4954  150.6590 LP  0  0  0  0  0  0  0  0  0  0  0  0  # atno 17343 bound_to 10162
  156.5159  130.4150  149.6276 LP  0  0  0  0  0  0  0  0  0  0  0  0  # atno 17370 bound_to 10713
  156.3198  130.7274  151.2184 LP  0  0  0  0  0  0  0  0  0  0  0  0  # atno 17371 bound_to 10713
  140.0196  134.9952  157.0564 LP  0  0  0  0  0  0  0  0  0  0  0  0  # atno 17394 bound_to 11000
  140.4462  134.1629  155.7177 LP  0  0  0  0  0  0  0  0  0  0  0  0  # atno 17395 bound_to 11000

$$$$
