AV-unprocessed.smi:15|AV-procd|sdf|84|dock10
  -GOLD-   2262015223D 1   1.00000     0.00000
 Structure written by MMmdl.
 53 56  0  0  0  0  0  0  0  0  1 V2000
  152.1891  139.9284  155.7510 C   0  0  0  0  0  0  0  0  0  0  0  0
  150.7149  140.3372  155.6371 C   0  0  0  0  0  0  0  0  0  0  0  0
  149.9306  139.9462  156.8080 N   0  0  0  0  0  0  0  0  0  0  0  0
  149.8216  140.8540  157.9520 C   0  0  0  0  0  0  0  0  0  0  0  0
  150.8844  141.9711  157.9475 C   0  0  1  0  0  0  0  0  0  0  0  0
  150.4881  143.1977  158.7665 C   0  0  0  0  0  0  0  0  0  0  0  0
  151.8221  143.8140  159.1635 C   0  0  0  0  0  0  0  0  0  0  0  0
  152.8456  142.7169  158.8601 C   0  0  0  0  0  0  0  0  0  0  0  0
  152.0679  141.5560  158.6129 O   0  0  0  0  0  0  0  0  0  0  0  0
  149.9461  138.6355  157.1495 C   0  0  0  0  0  0  0  0  0  0  0  0
  149.6717  138.3230  158.4414 N   0  0  0  0  0  0  0  0  0  0  0  0
  149.7189  137.0518  158.8496 C   0  0  0  0  0  0  0  0  0  0  0  0
  150.0300  135.9607  158.1476 N   0  0  0  0  0  0  0  0  0  0  0  0
  150.3197  136.2715  156.8515 C   0  0  0  0  0  0  0  0  0  0  0  0
  150.2896  137.5694  156.2682 C   0  0  0  0  0  0  0  0  0  0  0  0
  150.6502  137.4909  154.9275 N   0  0  0  0  0  0  0  0  0  0  0  0
  150.8783  136.2217  154.7310 C   0  0  0  0  0  0  0  0  0  0  0  0
  150.7294  135.4204  155.8401 N   0  0  0  0  0  0  0  0  0  0  0  0
  150.9449  133.9842  155.9150 C   0  0  0  0  0  0  0  0  0  0  0  0
  149.8883  133.1276  155.1686 C   0  0  1  0  0  0  0  0  0  0  0  0
  148.6697  133.3089  155.8696 O   0  0  0  0  0  0  0  0  0  0  0  0
  149.6674  133.5021  153.7096 C   0  0  0  0  0  0  0  0  0  0  0  0
  148.9840  132.2606  153.1452 C   0  0  0  0  0  0  0  0  0  0  0  0
  149.5300  131.1636  153.8688 O   0  0  0  0  0  0  0  0  0  0  0  0
  150.2106  131.6220  155.0359 C   0  0  2  0  0  0  0  0  0  0  0  0
  149.8844  130.7410  156.2515 C   0  0  0  0  0  0  0  0  0  0  0  0
  152.7561  140.2997  154.8975 H   0  0  0  0  0  0  0  0  0  0  0  0
  152.3095  138.8457  155.7746 H   0  0  0  0  0  0  0  0  0  0  0  0
  152.6421  140.3394  156.6535 H   0  0  0  0  0  0  0  0  0  0  0  0
  150.6690  141.4201  155.5124 H   0  0  0  0  0  0  0  0  0  0  0  0
  150.2804  139.9006  154.7379 H   0  0  0  0  0  0  0  0  0  0  0  0
  148.8306  141.3058  157.9389 H   0  0  0  0  0  0  0  0  0  0  0  0
  149.8729  140.2925  158.8859 H   0  0  0  0  0  0  0  0  0  0  0  0
  151.1291  142.2786  156.9296 H   0  0  0  0  0  0  0  0  0  0  0  0
  149.8522  143.8859  158.2092 H   0  0  0  0  0  0  0  0  0  0  0  0
  149.9473  142.8925  159.6634 H   0  0  0  0  0  0  0  0  0  0  0  0
  152.0382  144.7131  158.5857 H   0  0  0  0  0  0  0  0  0  0  0  0
  151.8237  144.0846  160.2198 H   0  0  0  0  0  0  0  0  0  0  0  0
  153.4188  142.9610  157.9645 H   0  0  0  0  0  0  0  0  0  0  0  0
  153.5459  142.5543  159.6796 H   0  0  0  0  0  0  0  0  0  0  0  0
  149.4815  136.8863  159.8901 H   0  0  0  0  0  0  0  0  0  0  0  0
  151.1815  135.8348  153.7689 H   0  0  0  0  0  0  0  0  0  0  0  0
  151.9396  133.7734  155.5197 H   0  0  0  0  0  0  0  0  0  0  0  0
  150.9740  133.7039  156.9690 H   0  0  0  0  0  0  0  0  0  0  0  0
  147.9659  132.9771  155.3333 H   0  0  0  0  0  0  0  0  0  0  0  0
  149.0824  134.4126  153.5741 H   0  0  0  0  0  0  0  0  0  0  0  0
  150.6166  133.6358  153.1922 H   0  0  0  0  0  0  0  0  0  0  0  0
  147.9095  132.2990  153.3277 H   0  0  0  0  0  0  0  0  0  0  0  0
  149.1408  132.1481  152.0723 H   0  0  0  0  0  0  0  0  0  0  0  0
  151.2666  131.4988  154.7997 H   0  0  0  0  0  0  0  0  0  0  0  0
  150.3983  131.0992  157.1436 H   0  0  0  0  0  0  0  0  0  0  0  0
  150.2018  129.7128  156.0770 H   0  0  0  0  0  0  0  0  0  0  0  0
  148.8150  130.7217  156.4621 H   0  0  0  0  0  0  0  0  0  0  0  0
  1  2  1  0  0  0  0
  1 27  1  0  0  0  0
  1 28  1  0  0  0  0
  1 29  1  0  0  0  0
  2  3  1  0  0  0  0
  2 30  1  0  0  0  0
  2 31  1  0  0  0  0
  3  4  1  0  0  0  0
  3 10  1  0  0  0  0
  4  5  1  0  0  0  0
  4 32  1  0  0  0  0
  4 33  1  0  0  0  0
  5  9  1  0  0  0  0
  5  6  1  0  0  0  0
  5 34  1  0  0  0  0
  6  7  1  0  0  0  0
  6 35  1  0  0  0  0
  6 36  1  0  0  0  0
  7  8  1  0  0  0  0
  7 37  1  0  0  0  0
  7 38  1  0  0  0  0
  8  9  1  0  0  0  0
  8 39  1  0  0  0  0
  8 40  1  0  0  0  0
 10 15  1  0  0  0  0
 10 11  2  0  0  0  0
 11 12  1  0  0  0  0
 12 13  2  0  0  0  0
 12 41  1  0  0  0  0
 13 14  1  0  0  0  0
 14 18  1  0  0  0  0
 14 15  2  0  0  0  0
 15 16  1  0  0  0  0
 16 17  2  0  0  0  0
 17 18  1  0  0  0  0
 17 42  1  0  0  0  0
 18 19  1  0  0  0  0
 19 20  1  0  0  0  0
 19 43  1  0  0  0  0
 19 44  1  0  0  0  0
 20 25  1  0  0  0  0
 20 21  1  0  0  0  0
 20 22  1  0  0  0  0
 21 45  1  0  0  0  0
 22 23  1  0  0  0  0
 22 46  1  0  0  0  0
 22 47  1  0  0  0  0
 23 24  1  0  0  0  0
 23 48  1  0  0  0  0
 23 49  1  0  0  0  0
 24 25  1  0  0  0  0
 25 26  1  0  0  0  0
 25 50  1  0  0  0  0
 26 51  1  0  0  0  0
 26 52  1  0  0  0  0
 26 53  1  0  0  0  0
M  END
> <s_m_source_file>
AV-unprocessed.smi

> <i_m_source_file_index>
15

> <i_lp_mmshare_version>
43012

> <i_f3d_flags>
0

> <s_epik_input>
TzFbQ0gyXVtDSDJdW0NIMl1bQ0BIXTFbQ0gyXU4oW0NIMl1bQ0gzXSljKG5bY0hdbjIpYyhjMjMpbltjSF1uM1tDSDJdW0NAQF00KFtPSF0pW0NIMl1bQ0gyXU9bQ0BIXTRbQ0gzXQ==

> <s_epik_cmdline>
J2VwaWtfcHl0aG9uJywgJy1waCcsICc3LjAnLCAnLXRuJywgJzgnLCAnLW1hJywgJzIwMCcsICctbWV0YWxfYmluZGluZycsICctaW1hZScsICc8aW5maWxlLm1hZT4nLCAnLW9tYWUnLCAnPG91dGZpbGUubWFlPic=

> <r_lp_tautomer_probability>
1

> <r_epik_Ionization_Penalty>
0.00360814

> <r_epik_Ionization_Penalty_Charging>
0

> <r_epik_Ionization_Penalty_Neutral>
0.00360814

> <r_epik_State_Penalty>
0.00237482

> <r_epik_Charging_Adjusted_Penalty>
0.00237482

> <i_epik_Tot_Q>
0

> <i_epik_Tot_abs_Q>
0

> <r_epik_Metal_State_Penalty>
-0

> <b_epik_Metal_Only>
0

> <s_lp_Force_Field>
OPLS_2005

> <r_lp_Energy>
47.1955

> <b_lp_Chiralities_Consistent>
1

> <s_lp_Variant>
AV-unprocessed.smi:15-6

> <Gold.Version>
5.8.1

> <Gold.Id.Protein>
6NUR|6NUR_protein|mol2

> <Gold.PLP.Fitness>
39.7168

> <Gold.PLP.PLP>
-37.7342

> <Gold.PLP.part.hbond>
-0.8723

> <Gold.PLP.part.metal>
0.0000

> <Gold.PLP.part.buried>
-5.2740

> <Gold.PLP.part.nonpolar>
-31.5944

> <Gold.PLP.part.repulsive>
0.2084

> <Gold.PLP.ligand.clash>
0.0000

> <Gold.PLP.ligand.torsion>
0.9256

> <Gold.PLP.Chemscore.Hbond>
0.0000

> <Gold.PLP.Chemscore.CHOScore>
0.9821

> <Gold.PLP.Chemscore.Metal>
0.0000

> <Gold.Chemscore.Hbonds>
donor molecule, donor type, donor heavy atom, donor atom, acceptor molecule, acceptor atom, score
      L1  C    17    42       P1  7949  1.00

> <Gold.PLP.Chemscore.Internal.Correction>
0.8874

> <Gold.Rescore>
     Score         DG    S(hbond)    S(metal)    S(lipo)     H(rot)  DE(clash)    DE(int)     intcor
      7.88     -10.02       0.00        0.00      92.22       2.44       0.06       2.08       ----

> <Gold.Chemscore.Fitness>
7.8754

> <Gold.Chemscore.DG>
-10.0150

> <Gold.Chemscore.ZeroCoef>
-5.4800

> <Gold.Chemscore.Hbond>
0.0000

> <Gold.Chemscore.Metal>
0.0000

> <Gold.Chemscore.Lipo>
92.2174

> <Gold.Chemscore.Internal_Hbond>
0.0000

> <Gold.Chemscore.DEClash>
0.0638

> <Gold.Chemscore.DEInternal>
2.0758

> <Gold.Chemscore.Rot>
2.4431

> <Gold.Chemscore.Internal.Correction>
   9.000000E+99

> <Gold.Chemscore.Hbond.Weighted>
-0.0000

> <Gold.Chemscore.Metal.Weighted>
-0.0000

> <Gold.Chemscore.Lipo.Weighted>
-10.7894

> <Gold.Chemscore.Internal_Hbond.Weighted>
0.0000

> <Gold.Chemscore.DEClash.Weighted>
0.0638

> <Gold.Chemscore.DEInternal.Weighted>
2.0758

> <Gold.Chemscore.Rot.Weighted>
6.2544

> <Gold.Chemscore.Internal.Correction.Weighted>
   9.000000E+99

> <Gold.Protein.RotatedTorsions>
[ 6907 6896 6895 6894 ] final   -0.44 input  -60.11 | X-H torsion
[ 7974 7965 7964 7962 ] final   59.32 input  175.53 | X-H torsion
[ 8008 7997 7996 7995 ] final -145.05 input   59.86 | X-H torsion
[ 10167 10162 10161 10158 ] final  130.49 input  -65.29 | X-H torsion
[ 10718 10713 10712 10709 ] final -113.82 input   66.30 | X-H torsion
[ 10763 10752 10751 10750 ] final   24.56 input  -60.55 | X-H torsion
[ 11005 11000 10999 10996 ] final   36.27 input  -57.11 | X-H torsion

> <Gold.Protein.ActiveResidues>
 VAL166  LYS551  ARG553  GLY616  TRP617  ASP618  TYR619  PRO620  LYS621  CYS622 
 ASP623  PHE694  ASN695  SER759  ASP760  ASP761  ALA762  ILE779  LEU786  VAL792 
 PHE793  MET794  SER795  GLU796  ALA797  LYS798  CYS799  TRP800  GLU811  SER814 

> <Gold.Protein.RotatedAtoms>
  151.5622  135.1065  159.9975 H   0  0  0  0  0  0  0  0  0  0  0  0  # atno 6907 bound_to 6896
  152.4441  133.7499  159.6699 H   0  0  0  0  0  0  0  0  0  0  0  0  # atno 6908 bound_to 6896
  150.8353  133.7956  159.3106 H   0  0  0  0  0  0  0  0  0  0  0  0  # atno 6909 bound_to 6896
  145.9084  139.3635  143.0550 H   0  0  0  0  0  0  0  0  0  0  0  0  # atno 7974 bound_to 7965
  155.5369  140.0604  157.2878 H   0  0  0  0  0  0  0  0  0  0  0  0  # atno 8008 bound_to 7997
  154.4465  140.1926  156.0595 H   0  0  0  0  0  0  0  0  0  0  0  0  # atno 8009 bound_to 7997
  156.0613  140.3272  155.7468 H   0  0  0  0  0  0  0  0  0  0  0  0  # atno 8010 bound_to 7997
  139.5428  144.6746  151.4570 H   0  0  0  0  0  0  0  0  0  0  0  0  # atno 10167 bound_to 10162
  156.0791  130.5994  150.8694 H   0  0  0  0  0  0  0  0  0  0  0  0  # atno 10718 bound_to 10713
  153.0755  135.6602  154.0156 H   0  0  0  0  0  0  0  0  0  0  0  0  # atno 10763 bound_to 10752
  153.9791  135.2957  155.3423 H   0  0  0  0  0  0  0  0  0  0  0  0  # atno 10764 bound_to 10752
  154.7141  135.5192  153.8782 H   0  0  0  0  0  0  0  0  0  0  0  0  # atno 10765 bound_to 10752
  140.2342  134.3491  155.7951 H   0  0  0  0  0  0  0  0  0  0  0  0  # atno 11005 bound_to 11000
  145.8702  140.9424  143.0654 LP  0  0  0  0  0  0  0  0  0  0  0  0  # atno 17320 bound_to 7965
  144.6741  140.0645  143.7475 LP  0  0  0  0  0  0  0  0  0  0  0  0  # atno 17321 bound_to 7965
  140.6664  143.8388  150.6947 LP  0  0  0  0  0  0  0  0  0  0  0  0  # atno 17342 bound_to 10162
  140.1799  143.4124  152.1941 LP  0  0  0  0  0  0  0  0  0  0  0  0  # atno 17343 bound_to 10162
  157.5900  131.0944  150.9134 LP  0  0  0  0  0  0  0  0  0  0  0  0  # atno 17370 bound_to 10713
  156.9312  130.5350  149.5279 LP  0  0  0  0  0  0  0  0  0  0  0  0  # atno 17371 bound_to 10713
  141.2215  133.7262  156.8781 LP  0  0  0  0  0  0  0  0  0  0  0  0  # atno 17394 bound_to 11000
  140.1719  134.9094  157.2844 LP  0  0  0  0  0  0  0  0  0  0  0  0  # atno 17395 bound_to 11000

$$$$
