AV-unprocessed.smi:2609|AV-procd|sdf|10206|dock1
  -GOLD-   2272014213D 1   1.00000     0.00000
 Structure written by MMmdl.
 25 26  0  0  0  0  0  0  0  0  1 V2000
  153.3494  142.5441  160.4628 O   0  0  0  0  0  0  0  0  0  0  0  0
  152.6096  142.8159  159.5196 C   0  0  0  0  0  0  0  0  0  0  0  0
  152.2145  144.2059  159.2463 C   0  0  0  0  0  0  0  0  0  0  0  0
  151.4036  144.4611  158.2021 C   0  0  0  0  0  0  0  0  0  0  0  0
  150.9334  143.4543  157.3814 N   0  0  0  0  0  0  0  0  0  0  0  0
  151.3307  142.1541  157.6754 C   0  0  0  0  0  0  0  0  0  0  0  0
  150.7532  141.1107  156.7143 C   0  0  0  0  0  0  0  0  0  0  0  0
  151.8515  140.2932  156.0056 C   0  0  0  0  0  0  0  0  0  0  0  0
  151.2335  139.2673  155.0405 C   0  0  0  0  0  0  0  0  0  0  0  0
  150.3919  139.9232  154.0990 O   0  0  0  0  0  0  0  0  0  0  0  0
  149.2929  140.5907  154.7089 C   0  0  0  0  0  0  0  0  0  0  0  0
  149.8066  141.6962  155.6449 C   0  0  0  0  0  0  0  0  0  0  0  0
  152.1100  141.8169  158.6645 N   0  0  0  0  0  0  0  0  0  0  0  0
  150.3270  143.6953  156.6105 H   0  0  0  0  0  0  0  0  0  0  0  0
  152.5701  145.0093  159.8749 H   0  0  0  0  0  0  0  0  0  0  0  0
  151.0694  145.4534  157.9372 H   0  0  0  0  0  0  0  0  0  0  0  0
  150.1644  140.4188  157.3188 H   0  0  0  0  0  0  0  0  0  0  0  0
  152.5101  140.9609  155.4479 H   0  0  0  0  0  0  0  0  0  0  0  0
  152.4782  139.7713  156.7297 H   0  0  0  0  0  0  0  0  0  0  0  0
  152.0208  138.7420  154.4995 H   0  0  0  0  0  0  0  0  0  0  0  0
  150.6656  138.5125  155.5868 H   0  0  0  0  0  0  0  0  0  0  0  0
  148.6673  141.0229  153.9279 H   0  0  0  0  0  0  0  0  0  0  0  0
  148.6738  139.8756  155.2527 H   0  0  0  0  0  0  0  0  0  0  0  0
  148.9604  142.1978  156.1168 H   0  0  0  0  0  0  0  0  0  0  0  0
  150.3269  142.4481  155.0492 H   0  0  0  0  0  0  0  0  0  0  0  0
  1  2  2  0  0  0  0
  2 13  1  0  0  0  0
  2  3  1  0  0  0  0
  3  4  2  0  0  0  0
  3 15  1  0  0  0  0
  4  5  1  0  0  0  0
  4 16  1  0  0  0  0
  5 14  1  0  0  0  0
  5  6  1  0  0  0  0
  6  7  1  0  0  0  0
  6 13  2  0  0  0  0
  7 12  1  0  0  0  0
  7  8  1  0  0  0  0
  7 17  1  0  0  0  0
  8  9  1  0  0  0  0
  8 18  1  0  0  0  0
  8 19  1  0  0  0  0
  9 10  1  0  0  0  0
  9 20  1  0  0  0  0
  9 21  1  0  0  0  0
 10 11  1  0  0  0  0
 11 12  1  0  0  0  0
 11 22  1  0  0  0  0
 11 23  1  0  0  0  0
 12 24  1  0  0  0  0
 12 25  1  0  0  0  0
M  END
> <s_m_source_file>
AV-unprocessed.smi

> <i_m_source_file_index>
2609

> <i_lp_mmshare_version>
43012

> <i_f3d_flags>
0

> <s_epik_input>
Tz1jMVtjSF1bY0hdW25IXWMobjEpW0NIXTJbQ0gyXVtDSDJdT1tDSDJdW0NIMl0y

> <s_epik_cmdline>
J2VwaWtfcHl0aG9uJywgJy1waCcsICc3LjAnLCAnLXRuJywgJzgnLCAnLW1hJywgJzIwMCcsICctbWV0YWxfYmluZGluZycsICctaW1hZScsICc8aW5maWxlLm1hZT4nLCAnLW9tYWUnLCAnPG91dGZpbGUubWFlPic=

> <r_lp_tautomer_probability>
0.156392

> <r_epik_Ionization_Penalty>
0.0156094

> <r_epik_Ionization_Penalty_Charging>
0.0155213

> <r_epik_Ionization_Penalty_Neutral>
8.80525e-05

> <r_epik_State_Penalty>
1.49738

> <r_epik_Charging_Adjusted_Penalty>
1.5129

> <i_epik_Tot_Q>
0

> <i_epik_Tot_abs_Q>
0

> <r_epik_Metal_State_Penalty>
1.69942

> <b_epik_Metal_Only>
0

> <s_lp_Force_Field>
OPLS_2005

> <r_lp_Energy>
19.0149

> <b_lp_Chiralities_Consistent>
1

> <s_lp_Variant>
AV-unprocessed.smi:2609-2

> <Gold.Version>
5.8.1

> <Gold.Id.Protein>
6NUR|6NUR_protein|mol2

> <Gold.PLP.Fitness>
36.4093

> <Gold.PLP.PLP>
-31.6401

> <Gold.PLP.part.hbond>
-2.0000

> <Gold.PLP.part.metal>
0.0000

> <Gold.PLP.part.buried>
-4.4560

> <Gold.PLP.part.nonpolar>
-26.4805

> <Gold.PLP.part.repulsive>
0.6921

> <Gold.PLP.ligand.clash>
1.2309

> <Gold.PLP.ligand.torsion>
0.0092

> <Gold.PLP.Chemscore.Hbond>
2.0000

> <Gold.PLP.Chemscore.CHOScore>
0.0000

> <Gold.PLP.Chemscore.Metal>
0.0000

> <Gold.Chemscore.Hbonds>
donor molecule, donor type, donor heavy atom, donor atom, acceptor molecule, acceptor atom, score
      L1  H     5    14       P1  8028  1.00
      P1  H  7989  7998       L1    10  0.70

> <Gold.PLP.Chemscore.Internal.Correction>
0.0186

> <Gold.Rescore>
     Score         DG    S(hbond)    S(metal)    S(lipo)     H(rot)  DE(clash)    DE(int)     intcor
     14.54     -14.60       1.44        0.00      58.80       1.00       0.01       0.06       ----

> <Gold.Chemscore.Fitness>
14.5357

> <Gold.Chemscore.DG>
-14.6000

> <Gold.Chemscore.ZeroCoef>
-5.4800

> <Gold.Chemscore.Hbond>
1.4372

> <Gold.Chemscore.Metal>
0.0000

> <Gold.Chemscore.Lipo>
58.8009

> <Gold.Chemscore.Internal_Hbond>
0.0000

> <Gold.Chemscore.DEClash>
0.0060

> <Gold.Chemscore.DEInternal>
0.0584

> <Gold.Chemscore.Rot>
1.0000

> <Gold.Chemscore.Internal.Correction>
   9.000000E+99

> <Gold.Chemscore.Hbonds>
donor molecule, donor type, donor heavy atom, donor atom, acceptor molecule, acceptor atom, score
      L1  H     5    14       P1  8028  0.95
      P1  H  7989  7998       L1    10  0.07

> <Gold.Chemscore.Hbond.Weighted>
-4.8003

> <Gold.Chemscore.Metal.Weighted>
-0.0000

> <Gold.Chemscore.Lipo.Weighted>
-6.8797

> <Gold.Chemscore.Internal_Hbond.Weighted>
0.0000

> <Gold.Chemscore.DEClash.Weighted>
0.0060

> <Gold.Chemscore.DEInternal.Weighted>
0.0584

> <Gold.Chemscore.Rot.Weighted>
2.5600

> <Gold.Chemscore.Internal.Correction.Weighted>
   9.000000E+99

> <Gold.Protein.RotatedTorsions>
[ 6907 6896 6895 6894 ] final   76.67 input  -60.11 | X-H torsion
[ 7974 7965 7964 7962 ] final   -1.44 input  175.53 | X-H torsion
[ 8008 7997 7996 7995 ] final   28.88 input   59.86 | X-H torsion
[ 10167 10162 10161 10158 ] final -142.75 input  -65.29 | X-H torsion
[ 10718 10713 10712 10709 ] final   87.70 input   66.30 | X-H torsion
[ 10763 10752 10751 10750 ] final  179.61 input  -60.55 | X-H torsion
[ 11005 11000 10999 10996 ] final -143.17 input  -57.11 | X-H torsion

> <Gold.Protein.ActiveResidues>
 VAL166  LYS551  ARG553  GLY616  TRP617  ASP618  TYR619  PRO620  LYS621  CYS622 
 ASP623  PHE694  ASN695  SER759  ASP760  ASP761  ALA762  ILE779  LEU786  VAL792 
 PHE793  MET794  SER795  GLU796  ALA797  LYS798  CYS799  TRP800  GLU811  SER814 

> <Gold.Protein.RotatedAtoms>
  152.5083  134.3933  159.9391 H   0  0  0  0  0  0  0  0  0  0  0  0  # atno 6907 bound_to 6896
  151.3894  133.3788  159.2727 H   0  0  0  0  0  0  0  0  0  0  0  0  # atno 6908 bound_to 6896
  150.9444  134.8871  159.7691 H   0  0  0  0  0  0  0  0  0  0  0  0  # atno 6909 bound_to 6896
  146.2417  140.1420  142.8335 H   0  0  0  0  0  0  0  0  0  0  0  0  # atno 7974 bound_to 7965
  155.0657  140.3195  155.4646 H   0  0  0  0  0  0  0  0  0  0  0  0  # atno 8008 bound_to 7997
  156.2802  140.2121  156.5729 H   0  0  0  0  0  0  0  0  0  0  0  0  # atno 8009 bound_to 7997
  154.7095  140.0499  157.0524 H   0  0  0  0  0  0  0  0  0  0  0  0  # atno 8010 bound_to 7997
  139.8058  143.7770  152.2661 H   0  0  0  0  0  0  0  0  0  0  0  0  # atno 10167 bound_to 10162
  157.6942  131.0265  150.3162 H   0  0  0  0  0  0  0  0  0  0  0  0  # atno 10718 bound_to 10713
  154.5229  135.2795  155.1247 H   0  0  0  0  0  0  0  0  0  0  0  0  # atno 10763 bound_to 10752
  154.2797  135.6287  153.5346 H   0  0  0  0  0  0  0  0  0  0  0  0  # atno 10764 bound_to 10752
  152.9940  135.5648  154.5722 H   0  0  0  0  0  0  0  0  0  0  0  0  # atno 10765 bound_to 10752
  140.8152  134.2697  157.4924 H   0  0  0  0  0  0  0  0  0  0  0  0  # atno 11005 bound_to 11000
  145.0239  140.8816  143.5150 LP  0  0  0  0  0  0  0  0  0  0  0  0  # atno 17320 bound_to 7965
  145.1473  139.2536  143.5459 LP  0  0  0  0  0  0  0  0  0  0  0  0  # atno 17321 bound_to 7965
  139.7904  144.7412  150.9963 LP  0  0  0  0  0  0  0  0  0  0  0  0  # atno 17342 bound_to 10162
  140.7819  143.4448  151.0498 LP  0  0  0  0  0  0  0  0  0  0  0  0  # atno 17343 bound_to 10162
  156.3656  130.3854  149.7216 LP  0  0  0  0  0  0  0  0  0  0  0  0  # atno 17370 bound_to 10713
  156.4648  130.7968  151.2988 LP  0  0  0  0  0  0  0  0  0  0  0  0  # atno 17371 bound_to 10713
  139.8711  134.9505  156.4057 LP  0  0  0  0  0  0  0  0  0  0  0  0  # atno 17394 bound_to 11000
  140.9156  133.7681  155.9844 LP  0  0  0  0  0  0  0  0  0  0  0  0  # atno 17395 bound_to 11000

$$$$
