#       Name:                AV-unprocessed.smi:153
#       Creating user name   scv26
#       Creation time:       Thu Mar 26 18:51:28 2020


#       File generated by GOLD software.
#

@<TRIPOS>MOLECULE
AV-unprocessed.smi:153
    71    74     1
SMALL
NO_CHARGES


@<TRIPOS>ATOM
      1 ****        -5.6165  -3.6268  -0.1201 C.3            1 S1                 0.0000
      2 ****        -5.2760  -2.3074  -0.8322 C.3            1 S1                 0.0000
      3 ****        -6.1774  -1.3015  -0.3778 O.3            1 S1                 0.0000
      4 ****        -5.5166  -0.0492  -0.4159 C.3            1 S1                 0.0000
      5 ****        -4.1283  -0.4043   0.0901 C.3            1 S1                 0.0000
      6 ****        -3.8475  -1.7391  -0.6014 C.3            1 S1                 0.0000
      7 ****        -3.0736  -2.5396   0.2765 O.3            1 S1                 0.0000
      8 ****        -3.0819  -1.6010  -1.9438 C.3            1 S1                 0.0000
      9 ****        -1.7757  -0.9694  -1.8275 N.pl3          1 S1                 0.0000
     10 ****        -0.5966  -1.5742  -1.4607 C.2            1 S1                 0.0000
     11 ****         0.4445  -0.7893  -1.4381 N.2            1 S1                 0.0000
     12 ****        -0.0451   0.4547  -1.8240 C.ar           1 S1                 0.0000
     13 ****         0.5324   1.7481  -2.0132 C.ar           1 S1                 0.0000
     14 ****         1.8447   2.0490  -1.7939 N.pl3          1 S1                 0.0000
     15 ****         2.3549   3.3265  -2.2883 C.3            1 S1                 0.0000
     16 ****         2.5220   1.4611  -0.6378 C.3            1 S1                 0.0000
     17 ****         2.0840   2.0786   0.7092 C.3            1 S1                 0.0000
     18 ****         0.8597   1.5246   1.1484 O.3            1 S1                 0.0000
     19 ****         3.1354   1.9152   1.8304 C.3            1 S1                 0.0000
     20 ****         3.8480   0.6345   1.8877 N.3            1 S1                 0.0000
     21 ****         2.9911  -0.4822   2.2822 C.3            1 S1                 0.0000
     22 ****         3.7709  -1.8064   2.3633 C.3            1 S1                 0.0000
     23 ****         4.8677  -1.6651   3.2599 O.3            1 S1                 0.0000
     24 ****         5.7532  -0.6172   2.8799 C.3            1 S1                 0.0000
     25 ****         4.9777   0.7095   2.8085 C.3            1 S1                 0.0000
     26 ****        -0.3017   2.7340  -2.4432 N.ar           1 S1                 0.0000
     27 ****        -1.5974   2.4924  -2.6562 C.ar           1 S1                 0.0000
     28 ****        -2.2662   1.3495  -2.5083 N.ar           1 S1                 0.0000
     29 ****        -1.4422   0.3484  -2.0884 C.ar           1 S1                 0.0000
     30 ****        -4.9607  -4.4332  -0.4497 H              1 S1                 0.0000
     31 ****        -6.6420  -3.9281  -0.3349 H              1 S1                 0.0000
     32 ****        -5.5212  -3.5321   0.9622 H              1 S1                 0.0000
     33 ****        -5.4540  -2.4370  -1.9009 H              1 S1                 0.0000
     34 ****        -5.4807   0.3249  -1.4403 H              1 S1                 0.0000
     35 ****        -6.0182   0.6901   0.2085 H              1 S1                 0.0000
     36 ****        -3.3926   0.3748  -0.1028 H              1 S1                 0.0000
     37 ****        -4.1801  -0.5368   1.1723 H              1 S1                 0.0000
     38 ****        -2.2649  -2.0860   0.4580 H              1 S1                 0.0000
     39 ****        -2.9413  -2.5842  -2.3949 H              1 S1                 0.0000
     40 ****        -3.6738  -1.0259  -2.6569 H              1 S1                 0.0000
     41 ****        -0.5324  -2.6225  -1.2076 H              1 S1                 0.0000
     42 ****         2.1227   3.4540  -3.3463 H              1 S1                 0.0000
     43 ****         3.4385   3.3803  -2.1823 H              1 S1                 0.0000
     44 ****         1.9204   4.1589  -1.7337 H              1 S1                 0.0000
     45 ****         2.4517   0.3764  -0.6222 H              1 S1                 0.0000
     46 ****         3.5859   1.6594  -0.7713 H              1 S1                 0.0000
     47 ****         1.9140   3.1480   0.5797 H              1 S1                 0.0000
     48 ****         0.9829   0.5969   1.2794 H              1 S1                 0.0000
     49 ****         3.8773   2.6980   1.6664 H              1 S1                 0.0000
     50 ****         2.6885   2.1426   2.7997 H              1 S1                 0.0000
     51 ****         2.5307  -0.2727   3.2490 H              1 S1                 0.0000
     52 ****         2.1793  -0.6085   1.5672 H              1 S1                 0.0000
     53 ****         3.1221  -2.6077   2.7168 H              1 S1                 0.0000
     54 ****         4.1343  -2.0999   1.3772 H              1 S1                 0.0000
     55 ****         6.5588  -0.5476   3.6110 H              1 S1                 0.0000
     56 ****         6.2119  -0.8492   1.9173 H              1 S1                 0.0000
     57 ****         5.6570   1.5042   2.4981 H              1 S1                 0.0000
     58 ****         4.6243   0.9740   3.8065 H              1 S1                 0.0000
     59 ****        -2.1814   3.3366  -2.9919 H              1 S1                 0.0000
     60 ****        -6.4623  -1.5033   0.5593 LP             1 S1                 0.0000
     61 ****        -6.9810  -1.2762  -0.9724 LP             1 S1                 0.0000
     62 ****        -2.8776  -3.4207  -0.1540 LP             1 S1                 0.0000
     63 ****        -3.5756  -2.6892   1.1283 LP             1 S1                 0.0000
     64 ****         1.3852  -1.0282  -1.1971 LP             1 S1                 0.0000
     65 ****         0.1526   1.6774   0.4580 LP             1 S1                 0.0000
     66 ****         0.5839   1.9536   2.0086 LP             1 S1                 0.0000
     67 ****         4.1698   0.4610   0.9569 LP             1 S1                 0.0000
     68 ****         5.3783  -2.5247   3.2795 LP             1 S1                 0.0000
     69 ****         4.5115  -1.4681   4.1733 LP             1 S1                 0.0000
     70 ****         0.0611   3.6523  -2.6018 LP             1 S1                 0.0000
     71 ****        -3.2449   1.2405  -2.6826 LP             1 S1                 0.0000
@<TRIPOS>BOND
    1    1    2 1     
    2    1   30 1     
    3    1   31 1     
    4    1   32 1     
    5    2    6 1     
    6    2    3 1     
    7    2   33 1     
    8    3    4 1     
    9    4    5 1     
   10    4   34 1     
   11    4   35 1     
   12    5    6 1     
   13    5   36 1     
   14    5   37 1     
   15    6    7 1     
   16    6    8 1     
   17    7   38 1     
   18    8    9 1     
   19    8   39 1     
   20    8   40 1     
   21    9   29 1     
   22    9   10 1     
   23   10   11 2     
   24   10   41 1     
   25   11   12 1     
   26   12   29 ar    
   27   12   13 ar    
   28   13   14 1     
   29   13   26 ar    
   30   14   15 1     
   31   14   16 1     
   32   15   42 1     
   33   15   43 1     
   34   15   44 1     
   35   16   17 1     
   36   16   45 1     
   37   16   46 1     
   38   17   18 1     
   39   17   19 1     
   40   17   47 1     
   41   18   48 1     
   42   19   20 1     
   43   19   49 1     
   44   19   50 1     
   45   20   25 1     
   46   20   21 1     
   47   21   22 1     
   48   21   51 1     
   49   21   52 1     
   50   22   23 1     
   51   22   53 1     
   52   22   54 1     
   53   23   24 1     
   54   24   25 1     
   55   24   55 1     
   56   24   56 1     
   57   25   57 1     
   58   25   58 1     
   59   26   27 ar    
   60   27   28 ar    
   61   27   59 1     
   62   28   29 ar    
   63    3   60 1     
   64    3   61 1     
   65    7   62 1     
   66    7   63 1     
   67   11   64 1     
   68   18   65 1     
   69   18   66 1     
   70   20   67 1     
   71   23   68 1     
   72   23   69 1     
   73   26   70 1     
   74   28   71 1     
@<TRIPOS>SUBSTRUCTURE
      1 S1             1
@<TRIPOS>SET
LONE_PAIRS      STATIC     ATOMS    <user>   **** ""
12 60 61 62 63 64 65 66 67 68 69 70 71
DONOR_HYDROGENS      STATIC     ATOMS    <user>   **** ""
2 38 48
ATOM$BLUE        STATIC     ATOMS    COLORGROUP SYSTEM
12 60 61 62 63 64 65 66 67 68 69 70 71
ATOM$RED        STATIC     ATOMS    COLORGROUP SYSTEM
2 38 48
