AV-unprocessed.smi:285|AV-procd|sdf|2171|dock3
  -GOLD-   2262021533D 1   1.00000     0.00000
 Structure written by MMmdl.
 31 33  0  0  0  0  0  0  0  0  1 V2000
  153.9375  140.6359  160.5124 N   0  0  0  0  0  0  0  0  0  0  0  0
  152.9983  141.3214  159.8453 C   0  0  0  0  0  0  0  0  0  0  0  0
  152.5250  142.4645  160.3942 N   0  0  0  0  0  0  0  0  0  0  0  0
  151.5892  143.1681  159.7486 C   0  0  0  0  0  0  0  0  0  0  0  0
  151.0096  142.9077  158.5736 N   0  0  0  0  0  0  0  0  0  0  0  0
  151.4860  141.7536  158.0203 C   0  0  0  0  0  0  0  0  0  0  0  0
  152.4794  140.9057  158.5930 C   0  0  0  0  0  0  0  0  0  0  0  0
  152.7243  139.8218  157.7593 N   0  0  0  0  0  0  0  0  0  0  0  0
  151.9146  140.0389  156.7609 C   0  0  0  0  0  0  0  0  0  0  0  0
  151.8569  138.8322  155.2884 Br  0  0  0  0  0  0  0  0  0  0  0  0
  151.1295  141.1683  156.8213 N   0  0  0  0  0  0  0  0  0  0  0  0
  150.1221  141.6680  155.8367 C   0  0  2  0  0  0  0  0  0  0  0  0
  148.7156  141.6283  156.4140 C   0  0  0  0  0  0  0  0  0  0  0  0
  147.9150  141.6021  155.1307 C   0  0  2  0  0  0  0  0  0  0  0  0
  146.6008  141.1292  155.3500 O   0  0  0  0  0  0  0  0  0  0  0  0
  148.7860  140.7249  154.2045 C   0  0  2  0  0  0  0  0  0  0  0  0
  148.4299  139.2253  154.1647 C   0  0  0  0  0  0  0  0  0  0  0  0
  149.3343  138.5166  153.3425 O   0  0  0  0  0  0  0  0  0  0  0  0
  150.1139  140.8268  154.7273 O   0  0  0  0  0  0  0  0  0  0  0  0
  154.3074  139.7802  160.1235 H   0  0  0  0  0  0  0  0  0  0  0  0
  154.2737  140.9759  161.4016 H   0  0  0  0  0  0  0  0  0  0  0  0
  151.2573  144.0687  160.2437 H   0  0  0  0  0  0  0  0  0  0  0  0
  150.4431  142.6678  155.5451 H   0  0  0  0  0  0  0  0  0  0  0  0
  148.5728  140.7122  156.9895 H   0  0  0  0  0  0  0  0  0  0  0  0
  148.5184  142.4934  157.0477 H   0  0  0  0  0  0  0  0  0  0  0  0
  147.8607  142.6124  154.7224 H   0  0  0  0  0  0  0  0  0  0  0  0
  145.9988  141.8463  155.2193 H   0  0  0  0  0  0  0  0  0  0  0  0
  148.7847  141.1286  153.1911 H   0  0  0  0  0  0  0  0  0  0  0  0
  148.4997  138.8016  155.1669 H   0  0  0  0  0  0  0  0  0  0  0  0
  147.4064  139.0672  153.8233 H   0  0  0  0  0  0  0  0  0  0  0  0
  149.3901  138.9581  152.5089 H   0  0  0  0  0  0  0  0  0  0  0  0
  1  2  1  0  0  0  0
  1 20  1  0  0  0  0
  1 21  1  0  0  0  0
  2  7  1  0  0  0  0
  2  3  2  0  0  0  0
  3  4  1  0  0  0  0
  4  5  2  0  0  0  0
  4 22  1  0  0  0  0
  5  6  1  0  0  0  0
  6 11  1  0  0  0  0
  6  7  2  0  0  0  0
  7  8  1  0  0  0  0
  8  9  2  0  0  0  0
  9 10  1  0  0  0  0
  9 11  1  0  0  0  0
 11 12  1  0  0  0  0
 12 19  1  0  0  0  0
 12 13  1  0  0  0  0
 12 23  1  0  0  0  0
 13 14  1  0  0  0  0
 13 24  1  0  0  0  0
 13 25  1  0  0  0  0
 14 15  1  0  0  0  0
 14 16  1  0  0  0  0
 14 26  1  0  0  0  0
 15 27  1  0  0  0  0
 16 17  1  0  0  0  0
 16 19  1  0  0  0  0
 16 28  1  0  0  0  0
 17 18  1  0  0  0  0
 17 29  1  0  0  0  0
 17 30  1  0  0  0  0
 18 31  1  0  0  0  0
M  END
> <s_m_source_file>
AV-unprocessed.smi

> <i_m_source_file_index>
285

> <i_lp_mmshare_version>
43012

> <i_f3d_flags>
0

> <s_epik_input>
bjFbY0hdbmMoW05IMl0pYyhjMTIpbmMoQnIpbjJbQ0BASF0zW0NIMl1bQ0BASF0oW09IXSlbQ0BIXShPMylbQ0gyXVtPSF0=

> <s_epik_cmdline>
J2VwaWtfcHl0aG9uJywgJy1waCcsICc3LjAnLCAnLXRuJywgJzgnLCAnLW1hJywgJzIwMCcsICctbWV0YWxfYmluZGluZycsICctaW1hZScsICc8aW5maWxlLm1hZT4nLCAnLW9tYWUnLCAnPG91dGZpbGUubWFlPic=

> <r_lp_tautomer_probability>
1

> <r_epik_Ionization_Penalty>
0.000103242

> <r_epik_Ionization_Penalty_Charging>
0

> <r_epik_Ionization_Penalty_Neutral>
0.000103242

> <r_epik_State_Penalty>
-0

> <r_epik_Charging_Adjusted_Penalty>
0

> <i_epik_Tot_Q>
0

> <i_epik_Tot_abs_Q>
0

> <r_epik_Metal_State_Penalty>
-0

> <b_epik_Metal_Only>
0

> <s_epik_Chemistry_Notes>
This compound contains an acetal/aminal-like group ( X-CH(R)-Y where X, Y are N, S, or O) that may be acid/base labile, releasing an aldehyde.

> <s_lp_Force_Field>
OPLS_2005

> <r_lp_Energy>
36.2712

> <b_lp_Chiralities_Consistent>
1

> <s_lp_Variant>
AV-unprocessed.smi:285-7

> <Gold.Version>
5.8.1

> <Gold.Id.Protein>
6NUR|6NUR_protein|mol2

> <Gold.PLP.Fitness>
41.4725

> <Gold.PLP.PLP>
-33.3039

> <Gold.PLP.part.hbond>
-4.0000

> <Gold.PLP.part.metal>
0.0000

> <Gold.PLP.part.buried>
-4.8705

> <Gold.PLP.part.nonpolar>
-25.0214

> <Gold.PLP.part.repulsive>
0.2364

> <Gold.PLP.ligand.clash>
0.0000

> <Gold.PLP.ligand.torsion>
0.0492

> <Gold.PLP.Chemscore.Hbond>
2.7520

> <Gold.PLP.Chemscore.CHOScore>
0.0000

> <Gold.PLP.Chemscore.Metal>
0.0000

> <Gold.Chemscore.Hbonds>
donor molecule, donor type, donor heavy atom, donor atom, acceptor molecule, acceptor atom, score
      L1  H    18    31       P1  7957  1.00
      P1  H  7989  7998       L1    19  0.75
      P1  H  7997  8008       L1     8  1.00

> <Gold.PLP.Chemscore.Internal.Correction>
0.0110

> <Gold.Rescore>
     Score         DG    S(hbond)    S(metal)    S(lipo)     H(rot)  DE(clash)    DE(int)     intcor
      8.23      -9.76       2.26        0.00      39.11       3.06       0.01       1.52       ----

> <Gold.Chemscore.Fitness>
8.2279

> <Gold.Chemscore.DG>
-9.7602

> <Gold.Chemscore.ZeroCoef>
-5.4800

> <Gold.Chemscore.Hbond>
2.2572

> <Gold.Chemscore.Metal>
0.0000

> <Gold.Chemscore.Lipo>
39.1144

> <Gold.Chemscore.Internal_Hbond>
0.0000

> <Gold.Chemscore.DEClash>
0.0137

> <Gold.Chemscore.DEInternal>
1.5186

> <Gold.Chemscore.Rot>
3.0607

> <Gold.Chemscore.Internal.Correction>
   9.000000E+99

> <Gold.Chemscore.Hbonds>
donor molecule, donor type, donor heavy atom, donor atom, acceptor molecule, acceptor atom, score
      L1  H    18    31       P1  7957  0.93
      P1  H  7989  7998       L1    19  0.71
      P1  H  7997  8008       L1     8  0.31

> <Gold.Chemscore.Hbond.Weighted>
-7.5392

> <Gold.Chemscore.Metal.Weighted>
-0.0000

> <Gold.Chemscore.Lipo.Weighted>
-4.5764

> <Gold.Chemscore.Internal_Hbond.Weighted>
0.0000

> <Gold.Chemscore.DEClash.Weighted>
0.0137

> <Gold.Chemscore.DEInternal.Weighted>
1.5186

> <Gold.Chemscore.Rot.Weighted>
7.8354

> <Gold.Chemscore.Internal.Correction.Weighted>
   9.000000E+99

> <Gold.Protein.RotatedTorsions>
[ 6907 6896 6895 6894 ] final  -35.52 input  -60.11 | X-H torsion
[ 7974 7965 7964 7962 ] final   17.73 input  175.53 | X-H torsion
[ 8008 7997 7996 7995 ] final  -83.47 input   59.86 | X-H torsion
[ 10167 10162 10161 10158 ] final -156.20 input  -65.29 | X-H torsion
[ 10718 10713 10712 10709 ] final   -2.14 input   66.30 | X-H torsion
[ 10763 10752 10751 10750 ] final  173.20 input  -60.55 | X-H torsion
[ 11005 11000 10999 10996 ] final   50.33 input  -57.11 | X-H torsion

> <Gold.Protein.ActiveResidues>
 VAL166  LYS551  ARG553  GLY616  TRP617  ASP618  TYR619  PRO620  LYS621  CYS622 
 ASP623  PHE694  ASN695  SER759  ASP760  ASP761  ALA762  ILE779  LEU786  VAL792 
 PHE793  MET794  SER795  GLU796  ALA797  LYS798  CYS799  TRP800  GLU811  SER814 

> <Gold.Protein.RotatedAtoms>
  151.0387  134.9592  159.8149 H   0  0  0  0  0  0  0  0  0  0  0  0  # atno 6907 bound_to 6896
  152.5360  134.2685  159.8972 H   0  0  0  0  0  0  0  0  0  0  0  0  # atno 6908 bound_to 6896
  151.2697  133.4219  159.2654 H   0  0  0  0  0  0  0  0  0  0  0  0  # atno 6909 bound_to 6896
  146.2209  139.8560  142.8613 H   0  0  0  0  0  0  0  0  0  0  0  0  # atno 7974 bound_to 7965
  154.6194  140.0618  156.9596 H   0  0  0  0  0  0  0  0  0  0  0  0  # atno 8008 bound_to 7997
  155.1842  140.3301  155.4351 H   0  0  0  0  0  0  0  0  0  0  0  0  # atno 8009 bound_to 7997
  156.2423  140.1892  156.6936 H   0  0  0  0  0  0  0  0  0  0  0  0  # atno 8010 bound_to 7997
  139.6869  143.9485  152.2366 H   0  0  0  0  0  0  0  0  0  0  0  0  # atno 10167 bound_to 10162
  156.7953  130.5375  149.5729 H   0  0  0  0  0  0  0  0  0  0  0  0  # atno 10718 bound_to 10713
  154.4367  135.2761  155.1876 H   0  0  0  0  0  0  0  0  0  0  0  0  # atno 10763 bound_to 10752
  154.3759  135.6098  153.5768 H   0  0  0  0  0  0  0  0  0  0  0  0  # atno 10764 bound_to 10752
  152.9838  135.5868  154.4687 H   0  0  0  0  0  0  0  0  0  0  0  0  # atno 10765 bound_to 10752
  140.1027  134.5060  155.8748 H   0  0  0  0  0  0  0  0  0  0  0  0  # atno 11005 bound_to 11000
  145.2753  141.0121  143.3748 LP  0  0  0  0  0  0  0  0  0  0  0  0  # atno 17320 bound_to 7965
  144.9192  139.4433  143.6549 LP  0  0  0  0  0  0  0  0  0  0  0  0  # atno 17321 bound_to 7965
  139.9291  144.6752  150.8381 LP  0  0  0  0  0  0  0  0  0  0  0  0  # atno 17342 bound_to 10162
  140.7670  143.3321  151.2387 LP  0  0  0  0  0  0  0  0  0  0  0  0  # atno 17343 bound_to 10162
  156.1134  130.6057  151.0083 LP  0  0  0  0  0  0  0  0  0  0  0  0  # atno 17370 bound_to 10713
  157.6580  131.0886  150.7902 LP  0  0  0  0  0  0  0  0  0  0  0  0  # atno 17371 bound_to 10713
  141.2110  133.6701  156.6549 LP  0  0  0  0  0  0  0  0  0  0  0  0  # atno 17394 bound_to 11000
  140.3198  134.8017  157.4243 LP  0  0  0  0  0  0  0  0  0  0  0  0  # atno 17395 bound_to 11000

$$$$
