AV-unprocessed.smi:447|AV-procd|sdf|2598|dock8
  -GOLD-   2262022593D 1   1.00000     0.00000
 Structure written by MMmdl.
 45 47  0  0  0  0  0  0  0  0  1 V2000
  147.4644  133.1624  152.1514 C   0  0  0  0  0  0  0  0  0  0  0  0
  148.0890  133.0329  153.5360 C   0  0  0  0  0  0  0  0  0  0  0  0
  147.9848  131.9794  154.1636 O   0  0  0  0  0  0  0  0  0  0  0  0
  148.7256  134.1167  154.0037 N   0  0  0  0  0  0  0  0  0  0  0  0
  149.3445  134.2349  155.3224 C   0  0  1  0  0  0  0  0  0  0  0  0
  150.5198  133.2572  155.4745 C   0  0  0  0  0  0  0  0  0  0  0  0
  149.7783  135.6676  155.5019 C   0  0  0  0  0  0  0  0  0  0  0  0
  150.6896  136.2343  154.7047 N   0  0  0  0  0  0  0  0  0  0  0  0
  150.7963  137.5124  155.2133 C   0  0  0  0  0  0  0  0  0  0  0  0
  151.5945  138.6026  154.7991 C   0  0  0  0  0  0  0  0  0  0  0  0
  151.5325  139.8333  155.4847 C   0  0  0  0  0  0  0  0  0  0  0  0
  150.6743  139.9906  156.5922 C   0  0  0  0  0  0  0  0  0  0  0  0
  149.8719  138.9159  157.0214 C   0  0  0  0  0  0  0  0  0  0  0  0
  149.9371  137.6896  156.3327 C   0  0  0  0  0  0  0  0  0  0  0  0
  149.2958  136.4651  156.4925 N   0  0  0  0  0  0  0  0  0  0  0  0
  148.3149  136.1611  157.5273 C   0  0  0  0  0  0  0  0  0  0  0  0
  148.8657  136.4077  158.9470 C   0  0  2  0  0  0  0  0  0  0  0  0
  150.2579  136.1662  158.9288 O   0  0  0  0  0  0  0  0  0  0  0  0
  148.1471  135.5888  160.0115 C   0  0  0  0  0  0  0  0  0  0  0  0
  148.0147  134.1924  159.8506 C   0  0  0  0  0  0  0  0  0  0  0  0
  147.3594  133.4223  160.8307 C   0  0  0  0  0  0  0  0  0  0  0  0
  146.8288  134.0442  161.9768 C   0  0  0  0  0  0  0  0  0  0  0  0
  146.9604  135.4358  162.1455 C   0  0  0  0  0  0  0  0  0  0  0  0
  147.6198  136.2058  161.1680 C   0  0  0  0  0  0  0  0  0  0  0  0
  148.1481  133.6598  151.4627 H   0  0  0  0  0  0  0  0  0  0  0  0
  146.5445  133.7452  152.2076 H   0  0  0  0  0  0  0  0  0  0  0  0
  147.2236  132.1805  151.7430 H   0  0  0  0  0  0  0  0  0  0  0  0
  148.7627  134.9372  153.4160 H   0  0  0  0  0  0  0  0  0  0  0  0
  148.5854  133.9884  156.0620 H   0  0  0  0  0  0  0  0  0  0  0  0
  150.9777  133.3510  156.4595 H   0  0  0  0  0  0  0  0  0  0  0  0
  151.2932  133.4456  154.7291 H   0  0  0  0  0  0  0  0  0  0  0  0
  150.1925  132.2234  155.3618 H   0  0  0  0  0  0  0  0  0  0  0  0
  152.2555  138.4920  153.9523 H   0  0  0  0  0  0  0  0  0  0  0  0
  152.1467  140.6604  155.1598 H   0  0  0  0  0  0  0  0  0  0  0  0
  150.6324  140.9363  157.1123 H   0  0  0  0  0  0  0  0  0  0  0  0
  149.2141  139.0331  157.8697 H   0  0  0  0  0  0  0  0  0  0  0  0
  147.3910  136.7113  157.3540 H   0  0  0  0  0  0  0  0  0  0  0  0
  148.0487  135.1087  157.4197 H   0  0  0  0  0  0  0  0  0  0  0  0
  148.7472  137.4638  159.1930 H   0  0  0  0  0  0  0  0  0  0  0  0
  150.6066  136.4904  158.1124 H   0  0  0  0  0  0  0  0  0  0  0  0
  148.4226  133.7062  158.9764 H   0  0  0  0  0  0  0  0  0  0  0  0
  147.2655  132.3538  160.7039 H   0  0  0  0  0  0  0  0  0  0  0  0
  146.3285  133.4535  162.7299 H   0  0  0  0  0  0  0  0  0  0  0  0
  146.5619  135.9123  163.0289 H   0  0  0  0  0  0  0  0  0  0  0  0
  147.7229  137.2712  161.3137 H   0  0  0  0  0  0  0  0  0  0  0  0
  1  2  1  0  0  0  0
  1 25  1  0  0  0  0
  1 26  1  0  0  0  0
  1 27  1  0  0  0  0
  2  3  2  0  0  0  0
  2  4  1  0  0  0  0
  4  5  1  0  0  0  0
  4 28  1  0  0  0  0
  5  6  1  0  0  0  0
  5  7  1  0  0  0  0
  5 29  1  0  0  0  0
  6 30  1  0  0  0  0
  6 31  1  0  0  0  0
  6 32  1  0  0  0  0
  7 15  1  0  0  0  0
  7  8  2  0  0  0  0
  8  9  1  0  0  0  0
  9 14  2  0  0  0  0
  9 10  1  0  0  0  0
 10 11  2  0  0  0  0
 10 33  1  0  0  0  0
 11 12  1  0  0  0  0
 11 34  1  0  0  0  0
 12 13  2  0  0  0  0
 12 35  1  0  0  0  0
 13 14  1  0  0  0  0
 13 36  1  0  0  0  0
 14 15  1  0  0  0  0
 15 16  1  0  0  0  0
 16 17  1  0  0  0  0
 16 37  1  0  0  0  0
 16 38  1  0  0  0  0
 17 18  1  0  0  0  0
 17 19  1  0  0  0  0
 17 39  1  0  0  0  0
 18 40  1  0  0  0  0
 19 24  1  0  0  0  0
 19 20  2  0  0  0  0
 20 21  1  0  0  0  0
 20 41  1  0  0  0  0
 21 22  2  0  0  0  0
 21 42  1  0  0  0  0
 22 23  1  0  0  0  0
 22 43  1  0  0  0  0
 23 24  2  0  0  0  0
 23 44  1  0  0  0  0
 24 45  1  0  0  0  0
M  END
> <s_m_source_file>
AV-unprocessed.smi

> <i_m_source_file_index>
447

> <i_lp_mmshare_version>
43012

> <i_f3d_flags>
0

> <s_epik_input>
W0NIM11DKD1PKVtOSF1bQ0BIXShbQ0gzXSljKG4xKW4oYyhjMTIpW2NIXVtjSF1bY0hdW2NIXTIpW0NIMl1bQ0BIXShbT0hdKWMzW2NIXVtjSF1bY0hdW2NIXVtjSF0z

> <s_epik_cmdline>
J2VwaWtfcHl0aG9uJywgJy1waCcsICc3LjAnLCAnLXRuJywgJzgnLCAnLW1hJywgJzIwMCcsICctbWV0YWxfYmluZGluZycsICctaW1hZScsICc8aW5maWxlLm1hZT4nLCAnLW9tYWUnLCAnPG91dGZpbGUubWFlPic=

> <r_epik_Ionization_Penalty>
0.13301

> <r_epik_Ionization_Penalty_Charging>
0

> <r_epik_Ionization_Penalty_Neutral>
0.13301

> <r_epik_State_Penalty>
0.122384

> <r_epik_Charging_Adjusted_Penalty>
0.122384

> <i_epik_Tot_Q>
0

> <i_epik_Tot_abs_Q>
0

> <r_epik_Metal_State_Penalty>
0.0997374

> <b_epik_Metal_Only>
0

> <s_lp_Force_Field>
OPLS_2005

> <r_lp_Energy>
6.90784

> <b_lp_Chiralities_Consistent>
1

> <s_lp_Variant>
AV-unprocessed.smi:447-2

> <Gold.Version>
5.8.1

> <Gold.Id.Protein>
6NUR|6NUR_protein|mol2

> <Gold.PLP.Fitness>
48.5950

> <Gold.PLP.PLP>
-40.6166

> <Gold.PLP.part.hbond>
-3.0000

> <Gold.PLP.part.metal>
0.0000

> <Gold.PLP.part.buried>
-3.5654

> <Gold.PLP.part.nonpolar>
-34.0296

> <Gold.PLP.part.repulsive>
0.2018

> <Gold.PLP.ligand.clash>
0.0000

> <Gold.PLP.ligand.torsion>
0.5348

> <Gold.PLP.Chemscore.Hbond>
3.0000

> <Gold.PLP.Chemscore.CHOScore>
0.0000

> <Gold.PLP.Chemscore.Metal>
0.0000

> <Gold.Chemscore.Hbonds>
donor molecule, donor type, donor heavy atom, donor atom, acceptor molecule, acceptor atom, score
      L1  H     4    28       P1  7948  1.00
      P1  H  6896  6909       L1    18  0.96
      P1  H 10752 10764       L1     8  0.18

> <Gold.PLP.Chemscore.Internal.Correction>
0.0480

> <Gold.Rescore>
     Score         DG    S(hbond)    S(metal)    S(lipo)     H(rot)  DE(clash)    DE(int)     intcor
     16.82     -17.44       1.97        0.00      97.48       2.35       0.10       0.52       ----

> <Gold.Chemscore.Fitness>
16.8182

> <Gold.Chemscore.DG>
-17.4402

> <Gold.Chemscore.ZeroCoef>
-5.4800

> <Gold.Chemscore.Hbond>
1.9695

> <Gold.Chemscore.Metal>
0.0000

> <Gold.Chemscore.Lipo>
97.4800

> <Gold.Chemscore.Internal_Hbond>
0.0000

> <Gold.Chemscore.DEClash>
0.1027

> <Gold.Chemscore.DEInternal>
0.5194

> <Gold.Chemscore.Rot>
2.3528

> <Gold.Chemscore.Internal.Correction>
   9.000000E+99

> <Gold.Chemscore.Hbonds>
donor molecule, donor type, donor heavy atom, donor atom, acceptor molecule, acceptor atom, score
      L1  H     4    28       P1  7948  0.48
      P1  H  6896  6909       L1    18  0.90
      P1  H 10752 10764       L1     8  0.06

> <Gold.Chemscore.Hbond.Weighted>
-6.5782

> <Gold.Chemscore.Metal.Weighted>
-0.0000

> <Gold.Chemscore.Lipo.Weighted>
-11.4052

> <Gold.Chemscore.Internal_Hbond.Weighted>
0.0000

> <Gold.Chemscore.DEClash.Weighted>
0.1027

> <Gold.Chemscore.DEInternal.Weighted>
0.5194

> <Gold.Chemscore.Rot.Weighted>
6.0231

> <Gold.Chemscore.Internal.Correction.Weighted>
   9.000000E+99

> <Gold.Protein.RotatedTorsions>
[ 6907 6896 6895 6894 ] final   93.90 input  -60.11 | X-H torsion
[ 7974 7965 7964 7962 ] final  165.74 input  175.53 | X-H torsion
[ 8008 7997 7996 7995 ] final -116.33 input   59.86 | X-H torsion
[ 10167 10162 10161 10158 ] final -133.03 input  -65.29 | X-H torsion
[ 10718 10713 10712 10709 ] final  115.21 input   66.30 | X-H torsion
[ 10763 10752 10751 10750 ] final  -52.39 input  -60.55 | X-H torsion
[ 11005 11000 10999 10996 ] final  -22.00 input  -57.11 | X-H torsion

> <Gold.Protein.ActiveResidues>
 VAL166  LYS551  ARG553  GLY616  TRP617  ASP618  TYR619  PRO620  LYS621  CYS622 
 ASP623  PHE694  ASN695  SER759  ASP760  ASP761  ALA762  ILE779  LEU786  VAL792 
 PHE793  MET794  SER795  GLU796  ALA797  LYS798  CYS799  TRP800  GLU811  SER814 

> <Gold.Protein.RotatedAtoms>
  152.5451  134.1276  159.8425 H   0  0  0  0  0  0  0  0  0  0  0  0  # atno 6907 bound_to 6896
  151.1325  133.5019  159.2606 H   0  0  0  0  0  0  0  0  0  0  0  0  # atno 6908 bound_to 6896
  151.1659  135.0305  159.8785 H   0  0  0  0  0  0  0  0  0  0  0  0  # atno 6909 bound_to 6896
  144.7490  139.8515  143.6372 H   0  0  0  0  0  0  0  0  0  0  0  0  # atno 7974 bound_to 7965
  155.0662  140.0393  157.2593 H   0  0  0  0  0  0  0  0  0  0  0  0  # atno 8008 bound_to 7997
  154.7019  140.2675  155.6686 H   0  0  0  0  0  0  0  0  0  0  0  0  # atno 8009 bound_to 7997
  156.2763  140.2739  156.1633 H   0  0  0  0  0  0  0  0  0  0  0  0  # atno 8010 bound_to 7997
  139.9024  143.6591  152.2592 H   0  0  0  0  0  0  0  0  0  0  0  0  # atno 10167 bound_to 10162
  157.6235  131.1009  150.7297 H   0  0  0  0  0  0  0  0  0  0  0  0  # atno 10718 bound_to 10713
  154.1419  135.6504  153.4944 H   0  0  0  0  0  0  0  0  0  0  0  0  # atno 10763 bound_to 10752
  153.0163  135.5317  154.6896 H   0  0  0  0  0  0  0  0  0  0  0  0  # atno 10764 bound_to 10752
  154.6160  135.2959  155.0351 H   0  0  0  0  0  0  0  0  0  0  0  0  # atno 10765 bound_to 10752
  140.8615  133.7784  156.0080 H   0  0  0  0  0  0  0  0  0  0  0  0  # atno 11005 bound_to 11000
  146.1413  139.4470  143.0107 LP  0  0  0  0  0  0  0  0  0  0  0  0  # atno 17320 bound_to 7965
  145.7014  141.0135  143.1502 LP  0  0  0  0  0  0  0  0  0  0  0  0  # atno 17321 bound_to 7965
  139.7013  144.7634  151.1268 LP  0  0  0  0  0  0  0  0  0  0  0  0  # atno 17342 bound_to 10162
  140.7704  143.5454  150.9265 LP  0  0  0  0  0  0  0  0  0  0  0  0  # atno 17343 bound_to 10162
  156.7650  130.4810  149.5429 LP  0  0  0  0  0  0  0  0  0  0  0  0  # atno 17370 bound_to 10713
  156.1394  130.6234  151.0446 LP  0  0  0  0  0  0  0  0  0  0  0  0  # atno 17371 bound_to 10713
  140.8677  134.2764  157.5205 LP  0  0  0  0  0  0  0  0  0  0  0  0  # atno 17394 bound_to 11000
  139.8707  134.9551  156.4196 LP  0  0  0  0  0  0  0  0  0  0  0  0  # atno 17395 bound_to 11000

$$$$
