AV-unprocessed.smi:1978|AV-procd|sdf|7999|dock8
  -GOLD-   2272010183D 1   1.00000     0.00000
 Structure written by MMmdl.
 45 46  0  0  0  0  0  0  0  0  2 V2000
  146.1805  129.7101  151.6253 C   0  0  0  0  0  0  0  0  0  0  0  0
  146.4822  131.0019  152.3045 C   0  0  0  0  0  0  0  0  0  0  0  0
  146.5639  132.2911  151.8583 C   0  0  0  0  0  0  0  0  0  0  0  0
  146.8863  133.0168  153.0357 C   0  0  0  0  0  0  0  0  0  0  0  0
  147.0630  134.4235  152.9978 N   0  0  0  0  0  0  0  0  0  0  0  0
  146.3038  135.3595  153.5919 C   0  0  0  0  0  0  0  0  0  0  0  0
  145.3047  135.1364  154.2763 O   0  0  0  0  0  0  0  0  0  0  0  0
  146.7697  136.5935  153.3494 N   0  0  0  0  0  0  0  0  0  0  0  0
  146.1620  137.8258  153.8449 C   0  0  0  0  0  0  0  0  0  0  0  0
  146.8320  139.1166  153.2870 C   0  0  1  0  0  0  0  0  0  0  0  0
  146.8163  139.0826  151.7381 C   0  0  0  0  0  0  0  0  0  0  0  0
  146.2014  140.3760  153.8190 N   0  3  2  0  0  0  0  0  0  0  0  0
  146.9317  141.6239  153.4360 C   0  0  0  0  0  0  0  0  0  0  0  0
  146.1531  142.8928  153.8213 C   0  0  0  0  0  0  0  0  0  0  0  0
  145.8259  142.9149  155.3145 C   0  0  0  0  0  0  0  0  0  0  0  0
  145.0791  141.6308  155.6859 C   0  0  0  0  0  0  0  0  0  0  0  0
  145.8611  140.3629  155.2825 C   0  0  2  0  0  0  0  0  0  0  0  0
  147.0842  140.1211  156.1957 C   0  0  0  0  0  0  0  0  0  0  0  0
  146.9938  132.2414  154.1036 N   0  0  0  0  0  0  0  0  0  0  0  0
  146.7348  130.9458  153.6405 O   0  0  0  0  0  0  0  0  0  0  0  0
  146.0731  129.8511  150.5496 H   0  0  0  0  0  0  0  0  0  0  0  0
  145.2524  129.2823  152.0047 H   0  0  0  0  0  0  0  0  0  0  0  0
  146.9801  128.9883  151.7931 H   0  0  0  0  0  0  0  0  0  0  0  0
  146.4152  132.6529  150.8517 H   0  0  0  0  0  0  0  0  0  0  0  0
  147.8513  134.7507  152.4591 H   0  0  0  0  0  0  0  0  0  0  0  0
  147.5947  136.6888  152.7751 H   0  0  0  0  0  0  0  0  0  0  0  0
  145.1043  137.8114  153.5802 H   0  0  0  0  0  0  0  0  0  0  0  0
  146.2109  137.7729  154.9318 H   0  0  0  0  0  0  0  0  0  0  0  0
  147.8770  139.1195  153.5993 H   0  0  0  0  0  0  0  0  0  0  0  0
  147.1760  138.1335  151.3428 H   0  0  0  0  0  0  0  0  0  0  0  0
  147.4706  139.8328  151.2975 H   0  0  0  0  0  0  0  0  0  0  0  0
  145.8094  139.2354  151.3485 H   0  0  0  0  0  0  0  0  0  0  0  0
  147.9226  141.6317  153.8910 H   0  0  0  0  0  0  0  0  0  0  0  0
  147.0857  141.6783  152.3612 H   0  0  0  0  0  0  0  0  0  0  0  0
  146.7306  143.7785  153.5549 H   0  0  0  0  0  0  0  0  0  0  0  0
  145.2285  142.9434  153.2441 H   0  0  0  0  0  0  0  0  0  0  0  0
  146.7419  143.0051  155.8990 H   0  0  0  0  0  0  0  0  0  0  0  0
  145.2176  143.7876  155.5540 H   0  0  0  0  0  0  0  0  0  0  0  0
  144.8661  141.6196  156.7556 H   0  0  0  0  0  0  0  0  0  0  0  0
  144.1089  141.6276  155.1870 H   0  0  0  0  0  0  0  0  0  0  0  0
  145.1556  139.5544  155.4634 H   0  0  0  0  0  0  0  0  0  0  0  0
  146.7860  140.1160  157.2444 H   0  0  0  0  0  0  0  0  0  0  0  0
  147.8465  140.8910  156.0814 H   0  0  0  0  0  0  0  0  0  0  0  0
  147.5573  139.1594  156.0000 H   0  0  0  0  0  0  0  0  0  0  0  0
  145.3097  140.4378  153.3487 H   0  0  0  0  0  0  0  0  0  0  0  0
  1  2  1  0  0  0  0
  1 21  1  0  0  0  0
  1 22  1  0  0  0  0
  1 23  1  0  0  0  0
  2 20  1  0  0  0  0
  2  3  2  0  0  0  0
  3  4  1  0  0  0  0
  3 24  1  0  0  0  0
  4  5  1  0  0  0  0
  4 19  2  0  0  0  0
  5  6  1  0  0  0  0
  5 25  1  0  0  0  0
  6  7  2  0  0  0  0
  6  8  1  0  0  0  0
  8  9  1  0  0  0  0
  8 26  1  0  0  0  0
  9 10  1  0  0  0  0
  9 27  1  0  0  0  0
  9 28  1  0  0  0  0
 10 11  1  0  0  0  0
 10 12  1  0  0  0  0
 10 29  1  0  0  0  0
 11 30  1  0  0  0  0
 11 31  1  0  0  0  0
 11 32  1  0  0  0  0
 12 17  1  0  0  0  0
 12 13  1  0  0  0  0
 12 45  1  0  0  0  0
 13 14  1  0  0  0  0
 13 33  1  0  0  0  0
 13 34  1  0  0  0  0
 14 15  1  0  0  0  0
 14 35  1  0  0  0  0
 14 36  1  0  0  0  0
 15 16  1  0  0  0  0
 15 37  1  0  0  0  0
 15 38  1  0  0  0  0
 16 17  1  0  0  0  0
 16 39  1  0  0  0  0
 16 40  1  0  0  0  0
 17 18  1  0  0  0  0
 17 41  1  0  0  0  0
 18 42  1  0  0  0  0
 18 43  1  0  0  0  0
 18 44  1  0  0  0  0
 19 20  1  0  0  0  0
M  CHG  1  12   1
M  END
> <s_m_source_file>
AV-unprocessed.smi

> <i_m_source_file_index>
1978

> <i_lp_mmshare_version>
43012

> <i_f3d_flags>
0

> <s_epik_input>
W0NIM11jMVtjSF1jKG5vMSlbTkhdQyg9TylbTkhdW0NIMl1bQ0BIXShbQ0gzXSlOMltDSDJdW0NIMl1bQ0gyXVtDSDJdW0NASF0yW0NIM10=

> <s_epik_cmdline>
J2VwaWtfcHl0aG9uJywgJy1waCcsICc3LjAnLCAnLXRuJywgJzgnLCAnLW1hJywgJzIwMCcsICctbWV0YWxfYmluZGluZycsICctaW1hZScsICc8aW5maWxlLm1hZT4nLCAnLW9tYWUnLCAnPG91dGZpbGUubWFlPic=

> <r_epik_Ionization_Penalty>
0.00265971

> <r_epik_Ionization_Penalty_Charging>
0.00262393

> <r_epik_Ionization_Penalty_Neutral>
3.57846e-05

> <r_epik_State_Penalty>
0.00182566

> <r_epik_Charging_Adjusted_Penalty>
0.00444959

> <i_epik_Tot_Q>
1

> <i_epik_Tot_abs_Q>
1

> <r_epik_Metal_State_Penalty>
0.0216344

> <b_epik_Metal_Only>
0

> <s_lp_Force_Field>
OPLS_2005

> <r_lp_Energy>
22.4222

> <b_lp_Chiralities_Consistent>
1

> <s_lp_Variant>
AV-unprocessed.smi:1978-8

> <Gold.Version>
5.8.1

> <Gold.Id.Protein>
6NUR|6NUR_protein|mol2

> <Gold.PLP.Fitness>
39.4910

> <Gold.PLP.PLP>
-28.9899

> <Gold.PLP.part.hbond>
-3.0000

> <Gold.PLP.part.metal>
0.0000

> <Gold.PLP.part.buried>
-3.1673

> <Gold.PLP.part.nonpolar>
-22.7590

> <Gold.PLP.part.repulsive>
0.2796

> <Gold.PLP.ligand.clash>
0.0000

> <Gold.PLP.ligand.torsion>
0.7901

> <Gold.PLP.Chemscore.Hbond>
4.0000

> <Gold.PLP.Chemscore.CHOScore>
0.0000

> <Gold.PLP.Chemscore.Metal>
0.0000

> <Gold.Chemscore.Hbonds>
donor molecule, donor type, donor heavy atom, donor atom, acceptor molecule, acceptor atom, score
      L1  H     5    25       P1  7948  1.00
      L1  H     8    26       P1  7948  1.00
      L1  H    12    45       P1 10175  2.00

> <Gold.PLP.Chemscore.Internal.Correction>
0.0814

> <Gold.Rescore>
     Score         DG    S(hbond)    S(metal)    S(lipo)     H(rot)  DE(clash)    DE(int)     intcor
     18.12     -18.96       2.87        0.00      67.06       1.55       0.14       0.70       ----

> <Gold.Chemscore.Fitness>
18.1176

> <Gold.Chemscore.DG>
-18.9589

> <Gold.Chemscore.ZeroCoef>
-5.4800

> <Gold.Chemscore.Hbond>
2.8726

> <Gold.Chemscore.Metal>
0.0000

> <Gold.Chemscore.Lipo>
67.0558

> <Gold.Chemscore.Internal_Hbond>
0.0000

> <Gold.Chemscore.DEClash>
0.1373

> <Gold.Chemscore.DEInternal>
0.7040

> <Gold.Chemscore.Rot>
1.5474

> <Gold.Chemscore.Internal.Correction>
   9.000000E+99

> <Gold.Chemscore.Hbonds>
donor molecule, donor type, donor heavy atom, donor atom, acceptor molecule, acceptor atom, score
      L1  H     5    25       P1  7948  0.71
      L1  H     8    26       P1  7948  0.99
      L1  H    12    45       P1 10175  0.98

> <Gold.Chemscore.Hbond.Weighted>
-9.5946

> <Gold.Chemscore.Metal.Weighted>
-0.0000

> <Gold.Chemscore.Lipo.Weighted>
-7.8455

> <Gold.Chemscore.Internal_Hbond.Weighted>
0.0000

> <Gold.Chemscore.DEClash.Weighted>
0.1373

> <Gold.Chemscore.DEInternal.Weighted>
0.7040

> <Gold.Chemscore.Rot.Weighted>
3.9612

> <Gold.Chemscore.Internal.Correction.Weighted>
   9.000000E+99

> <Gold.Protein.RotatedTorsions>
[ 6907 6896 6895 6894 ] final   -9.39 input  -60.11 | X-H torsion
[ 7974 7965 7964 7962 ] final  -77.18 input  175.53 | X-H torsion
[ 8008 7997 7996 7995 ] final -125.03 input   59.86 | X-H torsion
[ 10167 10162 10161 10158 ] final  -54.02 input  -65.29 | X-H torsion
[ 10718 10713 10712 10709 ] final -157.50 input   66.30 | X-H torsion
[ 10763 10752 10751 10750 ] final -141.69 input  -60.55 | X-H torsion
[ 11005 11000 10999 10996 ] final  -73.01 input  -57.11 | X-H torsion

> <Gold.Protein.ActiveResidues>
 VAL166  LYS551  ARG553  GLY616  TRP617  ASP618  TYR619  PRO620  LYS621  CYS622 
 ASP623  PHE694  ASN695  SER759  ASP760  ASP761  ALA762  ILE779  LEU786  VAL792 
 PHE793  MET794  SER795  GLU796  ALA797  LYS798  CYS799  TRP800  GLU811  SER814 

> <Gold.Protein.RotatedAtoms>
  151.4185  135.0995  159.9606 H   0  0  0  0  0  0  0  0  0  0  0  0  # atno 6907 bound_to 6896
  152.4996  133.8729  159.7318 H   0  0  0  0  0  0  0  0  0  0  0  0  # atno 6908 bound_to 6896
  150.9240  133.6788  159.2853 H   0  0  0  0  0  0  0  0  0  0  0  0  # atno 6909 bound_to 6896
  145.6031  140.9404  143.1230 H   0  0  0  0  0  0  0  0  0  0  0  0  # atno 7974 bound_to 7965
  155.2067  140.0417  157.2926 H   0  0  0  0  0  0  0  0  0  0  0  0  # atno 8008 bound_to 7997
  154.6039  140.2459  155.7728 H   0  0  0  0  0  0  0  0  0  0  0  0  # atno 8009 bound_to 7997
  156.2338  140.2929  156.0267 H   0  0  0  0  0  0  0  0  0  0  0  0  # atno 8010 bound_to 7997
  140.6453  143.2532  151.4876 H   0  0  0  0  0  0  0  0  0  0  0  0  # atno 10167 bound_to 10162
  156.5411  130.8563  151.2749 H   0  0  0  0  0  0  0  0  0  0  0  0  # atno 10718 bound_to 10713
  154.8536  135.3517  154.5908 H   0  0  0  0  0  0  0  0  0  0  0  0  # atno 10763 bound_to 10752
  153.6517  135.6994  153.5211 H   0  0  0  0  0  0  0  0  0  0  0  0  # atno 10764 bound_to 10752
  153.2888  135.4241  155.1106 H   0  0  0  0  0  0  0  0  0  0  0  0  # atno 10765 bound_to 10752
  141.1617  133.6865  156.7147 H   0  0  0  0  0  0  0  0  0  0  0  0  # atno 11005 bound_to 11000
  144.7301  139.7751  143.7350 LP  0  0  0  0  0  0  0  0  0  0  0  0  # atno 17320 bound_to 7965
  146.1561  139.4660  143.0018 LP  0  0  0  0  0  0  0  0  0  0  0  0  # atno 17321 bound_to 7965
  139.5664  144.2033  152.1771 LP  0  0  0  0  0  0  0  0  0  0  0  0  # atno 17342 bound_to 10162
  140.1316  144.5283  150.6799 LP  0  0  0  0  0  0  0  0  0  0  0  0  # atno 17343 bound_to 10162
  157.7405  130.9851  150.2382 LP  0  0  0  0  0  0  0  0  0  0  0  0  # atno 17370 bound_to 10713
  156.2971  130.3753  149.7786 LP  0  0  0  0  0  0  0  0  0  0  0  0  # atno 17371 bound_to 10713
  140.2861  134.8278  157.3976 LP  0  0  0  0  0  0  0  0  0  0  0  0  # atno 17394 bound_to 11000
  140.1389  134.4998  155.8047 LP  0  0  0  0  0  0  0  0  0  0  0  0  # atno 17395 bound_to 11000

$$$$
