AV-unprocessed.smi:422|AV-procd|sdf|2536|dock2
  -GOLD-   2262022493D 1   1.00000     0.00000
 Structure written by MMmdl.
 43 45  0  0  0  0  0  0  0  0  1 V2000
  155.1404  140.6223  160.9475 C   0  0  0  0  0  0  0  0  0  0  0  0
  154.0269  140.5931  160.0069 N   0  0  0  0  0  0  0  0  0  0  0  0
  153.4614  139.4971  159.4487 C   0  0  0  0  0  0  0  0  0  0  0  0
  153.7912  138.3282  159.6489 O   0  0  0  0  0  0  0  0  0  0  0  0
  152.4548  139.9099  158.6437 N   0  0  0  0  0  0  0  0  0  0  0  0
  151.5621  139.0568  157.8642 C   0  0  0  0  0  0  0  0  0  0  0  0
  150.9681  137.9239  158.7295 C   0  0  2  0  0  0  0  0  0  0  0  0
  151.8793  136.8445  158.7560 O   0  0  0  0  0  0  0  0  0  0  0  0
  149.6399  137.3970  158.1664 C   0  0  0  0  0  0  0  0  0  0  0  0
  149.3527  136.1588  158.7940 O   0  0  0  0  0  0  0  0  0  0  0  0
  149.1046  136.2768  160.1833 C   0  0  0  0  0  0  0  0  0  0  0  0
  148.4634  135.0167  160.7306 C   0  0  0  0  0  0  0  0  0  0  0  0
  148.0883  133.9731  159.8579 C   0  0  0  0  0  0  0  0  0  0  0  0
  147.4977  132.8008  160.3689 C   0  0  0  0  0  0  0  0  0  0  0  0
  147.2778  132.6681  161.7535 C   0  0  0  0  0  0  0  0  0  0  0  0
  147.6467  133.7091  162.6270 C   0  0  0  0  0  0  0  0  0  0  0  0
  148.2366  134.8825  162.1179 C   0  0  0  0  0  0  0  0  0  0  0  0
  148.5848  135.8793  162.9669 F   0  0  0  0  0  0  0  0  0  0  0  0
  152.3543  141.3072  158.7112 C   0  0  0  0  0  0  0  0  0  0  0  0
  151.4658  142.2042  158.0929 C   0  0  0  0  0  0  0  0  0  0  0  0
  151.6304  143.5791  158.3807 C   0  0  0  0  0  0  0  0  0  0  0  0
  152.6535  144.0203  159.2600 C   0  0  0  0  0  0  0  0  0  0  0  0
  153.5327  143.0955  159.8714 C   0  0  0  0  0  0  0  0  0  0  0  0
  153.3461  141.7360  159.5677 C   0  0  0  0  0  0  0  0  0  0  0  0
  155.6419  139.6560  161.0174 H   0  0  0  0  0  0  0  0  0  0  0  0
  154.7841  140.8930  161.9417 H   0  0  0  0  0  0  0  0  0  0  0  0
  155.8807  141.3600  160.6365 H   0  0  0  0  0  0  0  0  0  0  0  0
  150.7665  139.6876  157.4659 H   0  0  0  0  0  0  0  0  0  0  0  0
  152.0752  138.6622  156.9851 H   0  0  0  0  0  0  0  0  0  0  0  0
  150.8049  138.2584  159.7553 H   0  0  0  0  0  0  0  0  0  0  0  0
  152.6190  137.0635  158.2098 H   0  0  0  0  0  0  0  0  0  0  0  0
  148.8376  138.1161  158.3407 H   0  0  0  0  0  0  0  0  0  0  0  0
  149.7176  137.2429  157.0888 H   0  0  0  0  0  0  0  0  0  0  0  0
  150.0401  136.4492  160.7176 H   0  0  0  0  0  0  0  0  0  0  0  0
  148.4612  137.1371  160.3732 H   0  0  0  0  0  0  0  0  0  0  0  0
  148.2545  134.0657  158.7947 H   0  0  0  0  0  0  0  0  0  0  0  0
  147.2137  132.0031  159.6983 H   0  0  0  0  0  0  0  0  0  0  0  0
  146.8253  131.7692  162.1452 H   0  0  0  0  0  0  0  0  0  0  0  0
  147.4765  133.6080  163.6886 H   0  0  0  0  0  0  0  0  0  0  0  0
  150.6873  141.8643  157.4274 H   0  0  0  0  0  0  0  0  0  0  0  0
  150.9681  144.3012  157.9260 H   0  0  0  0  0  0  0  0  0  0  0  0
  152.7611  145.0747  159.4666 H   0  0  0  0  0  0  0  0  0  0  0  0
  154.3112  143.4231  160.5443 H   0  0  0  0  0  0  0  0  0  0  0  0
  1  2  1  0  0  0  0
  1 25  1  0  0  0  0
  1 26  1  0  0  0  0
  1 27  1  0  0  0  0
  2 24  1  0  0  0  0
  2  3  1  0  0  0  0
  3  4  2  0  0  0  0
  3  5  1  0  0  0  0
  5  6  1  0  0  0  0
  5 19  1  0  0  0  0
  6  7  1  0  0  0  0
  6 28  1  0  0  0  0
  6 29  1  0  0  0  0
  7  8  1  0  0  0  0
  7  9  1  0  0  0  0
  7 30  1  0  0  0  0
  8 31  1  0  0  0  0
  9 10  1  0  0  0  0
  9 32  1  0  0  0  0
  9 33  1  0  0  0  0
 10 11  1  0  0  0  0
 11 12  1  0  0  0  0
 11 34  1  0  0  0  0
 11 35  1  0  0  0  0
 12 17  1  0  0  0  0
 12 13  2  0  0  0  0
 13 14  1  0  0  0  0
 13 36  1  0  0  0  0
 14 15  2  0  0  0  0
 14 37  1  0  0  0  0
 15 16  1  0  0  0  0
 15 38  1  0  0  0  0
 16 17  2  0  0  0  0
 16 39  1  0  0  0  0
 17 18  1  0  0  0  0
 19 24  2  0  0  0  0
 19 20  1  0  0  0  0
 20 21  2  0  0  0  0
 20 40  1  0  0  0  0
 21 22  1  0  0  0  0
 21 41  1  0  0  0  0
 22 23  2  0  0  0  0
 22 42  1  0  0  0  0
 23 24  1  0  0  0  0
 23 43  1  0  0  0  0
M  END
> <s_m_source_file>
AV-unprocessed.smi

> <i_m_source_file_index>
422

> <i_lp_mmshare_version>
43012

> <i_f3d_flags>
0

> <s_epik_input>
W2NIXTFbY0hdW2NIXVtjSF1jKGMxMiluKFtDSDNdKWMoPU8pbjJbQ0gyXVtDQEhdKFtPSF0pW0NIMl1PW0NIMl1jM1tjSF1bY0hdW2NIXVtjSF1jM0Y=

> <s_epik_cmdline>
J2VwaWtfcHl0aG9uJywgJy1waCcsICc3LjAnLCAnLXRuJywgJzgnLCAnLW1hJywgJzIwMCcsICctbWV0YWxfYmluZGluZycsICctaW1hZScsICc8aW5maWxlLm1hZT4nLCAnLW9tYWUnLCAnPG91dGZpbGUubWFlPic=

> <r_lp_tautomer_probability>
1

> <r_epik_Ionization_Penalty>
1.0795e-06

> <r_epik_Ionization_Penalty_Charging>
2.82452e-09

> <r_epik_Ionization_Penalty_Neutral>
1.07667e-06

> <r_epik_State_Penalty>
-0

> <r_epik_Charging_Adjusted_Penalty>
2.82452e-09

> <i_epik_Tot_Q>
0

> <i_epik_Tot_abs_Q>
0

> <r_epik_Metal_State_Penalty>
-0

> <b_epik_Metal_Only>
0

> <s_lp_Force_Field>
OPLS_2005

> <r_lp_Energy>
45.4687

> <b_lp_Chiralities_Consistent>
1

> <s_lp_Variant>
AV-unprocessed.smi:422-1

> <Gold.Version>
5.8.1

> <Gold.Id.Protein>
6NUR|6NUR_protein|mol2

> <Gold.PLP.Fitness>
58.1098

> <Gold.PLP.PLP>
-56.0469

> <Gold.PLP.part.hbond>
-1.2839

> <Gold.PLP.part.metal>
0.0000

> <Gold.PLP.part.buried>
-4.7565

> <Gold.PLP.part.nonpolar>
-50.4132

> <Gold.PLP.part.repulsive>
0.0000

> <Gold.PLP.ligand.clash>
0.0000

> <Gold.PLP.ligand.torsion>
0.5517

> <Gold.PLP.Chemscore.Hbond>
1.0000

> <Gold.PLP.Chemscore.CHOScore>
0.0000

> <Gold.PLP.Chemscore.Metal>
0.0000

> <Gold.Chemscore.Hbonds>
donor molecule, donor type, donor heavy atom, donor atom, acceptor molecule, acceptor atom, score
      P1  H  6896  6909       L1     8  0.61

> <Gold.PLP.Chemscore.Internal.Correction>
0.1664

> <Gold.Rescore>
     Score         DG    S(hbond)    S(metal)    S(lipo)     H(rot)  DE(clash)    DE(int)     intcor
     17.19     -17.72       0.97        0.00     128.96       2.38       0.05       0.48       ----

> <Gold.Chemscore.Fitness>
17.1940

> <Gold.Chemscore.DG>
-17.7234

> <Gold.Chemscore.ZeroCoef>
-5.4800

> <Gold.Chemscore.Hbond>
0.9730

> <Gold.Chemscore.Metal>
0.0000

> <Gold.Chemscore.Lipo>
128.9612

> <Gold.Chemscore.Internal_Hbond>
0.0000

> <Gold.Chemscore.DEClash>
0.0473

> <Gold.Chemscore.DEInternal>
0.4820

> <Gold.Chemscore.Rot>
2.3809

> <Gold.Chemscore.Internal.Correction>
   9.000000E+99

> <Gold.Chemscore.Hbonds>
donor molecule, donor type, donor heavy atom, donor atom, acceptor molecule, acceptor atom, score
      P1  H  6896  6909       L1     8  0.57

> <Gold.Chemscore.Hbond.Weighted>
-3.2499

> <Gold.Chemscore.Metal.Weighted>
-0.0000

> <Gold.Chemscore.Lipo.Weighted>
-15.0885

> <Gold.Chemscore.Internal_Hbond.Weighted>
0.0000

> <Gold.Chemscore.DEClash.Weighted>
0.0473

> <Gold.Chemscore.DEInternal.Weighted>
0.4820

> <Gold.Chemscore.Rot.Weighted>
6.0951

> <Gold.Chemscore.Internal.Correction.Weighted>
   9.000000E+99

> <Gold.Protein.RotatedTorsions>
[ 6907 6896 6895 6894 ] final  106.12 input  -60.11 | X-H torsion
[ 7974 7965 7964 7962 ] final  117.72 input  175.53 | X-H torsion
[ 8008 7997 7996 7995 ] final    5.36 input   59.86 | X-H torsion
[ 10167 10162 10161 10158 ] final  -44.10 input  -65.29 | X-H torsion
[ 10718 10713 10712 10709 ] final   23.67 input   66.30 | X-H torsion
[ 10763 10752 10751 10750 ] final   91.41 input  -60.55 | X-H torsion
[ 11005 11000 10999 10996 ] final  101.00 input  -57.11 | X-H torsion

> <Gold.Protein.ActiveResidues>
 VAL166  LYS551  ARG553  GLY616  TRP617  ASP618  TYR619  PRO620  LYS621  CYS622 
 ASP623  PHE694  ASN695  SER759  ASP760  ASP761  ALA762  ILE779  LEU786  VAL792 
 PHE793  MET794  SER795  GLU796  ALA797  LYS798  CYS799  TRP800  GLU811  SER814 

> <Gold.Protein.RotatedAtoms>
  152.5206  133.9428  159.7634 H   0  0  0  0  0  0  0  0  0  0  0  0  # atno 6907 bound_to 6896
  150.9755  133.6291  159.2738 H   0  0  0  0  0  0  0  0  0  0  0  0  # atno 6908 bound_to 6896
  151.3488  135.0885  159.9449 H   0  0  0  0  0  0  0  0  0  0  0  0  # atno 6909 bound_to 6896
  145.1639  139.3139  143.4503 H   0  0  0  0  0  0  0  0  0  0  0  0  # atno 7974 bound_to 7965
  154.7274  140.2724  155.6486 H   0  0  0  0  0  0  0  0  0  0  0  0  # atno 8008 bound_to 7997
  156.2840  140.2722  156.1889 H   0  0  0  0  0  0  0  0  0  0  0  0  # atno 8009 bound_to 7997
  155.0426  140.0371  157.2505 H   0  0  0  0  0  0  0  0  0  0  0  0  # atno 8010 bound_to 7997
  140.6909  143.2948  151.3446 H   0  0  0  0  0  0  0  0  0  0  0  0  # atno 10167 bound_to 10162
  157.1692  130.6752  149.6072 H   0  0  0  0  0  0  0  0  0  0  0  0  # atno 10718 bound_to 10713
  153.2079  135.4398  155.0345 H   0  0  0  0  0  0  0  0  0  0  0  0  # atno 10763 bound_to 10752
  154.8184  135.3326  154.7112 H   0  0  0  0  0  0  0  0  0  0  0  0  # atno 10764 bound_to 10752
  153.7552  135.6995  153.4992 H   0  0  0  0  0  0  0  0  0  0  0  0  # atno 10765 bound_to 10752
  139.8772  134.9164  156.4841 H   0  0  0  0  0  0  0  0  0  0  0  0  # atno 11005 bound_to 11000
  146.3478  140.1759  142.8589 LP  0  0  0  0  0  0  0  0  0  0  0  0  # atno 17320 bound_to 7965
  145.0302  140.8865  143.5114 LP  0  0  0  0  0  0  0  0  0  0  0  0  # atno 17321 bound_to 7965
  139.6312  144.0717  152.2478 LP  0  0  0  0  0  0  0  0  0  0  0  0  # atno 17342 bound_to 10162
  140.0192  144.6165  150.7581 LP  0  0  0  0  0  0  0  0  0  0  0  0  # atno 17343 bound_to 10162
  155.9741  130.4685  150.6361 LP  0  0  0  0  0  0  0  0  0  0  0  0  # atno 17370 bound_to 10713
  157.4059  131.0816  151.1266 LP  0  0  0  0  0  0  0  0  0  0  0  0  # atno 17371 bound_to 10713
  140.8706  133.7991  155.9360 LP  0  0  0  0  0  0  0  0  0  0  0  0  # atno 17394 bound_to 11000
  140.8957  134.2441  157.5070 LP  0  0  0  0  0  0  0  0  0  0  0  0  # atno 17395 bound_to 11000

$$$$
