AV-unprocessed.smi:2169|AV-procd|sdf|8823|dock1
  -GOLD-   2272012 13D 1   1.00000     0.00000
 Structure written by MMmdl.
 45 46  0  0  0  0  0  0  0  0  2 V2000
  151.4797  141.6659  157.5275 C   0  0  0  0  0  0  0  0  0  0  0  0
  150.6090  140.4527  156.4534 S   0  0  0  0  0  0  0  0  0  0  0  0
  151.4534  140.1923  155.2774 O   0  0  0  0  0  0  0  0  0  0  0  0
  150.1656  139.3309  157.2951 O   0  0  0  0  0  0  0  0  0  0  0  0
  149.1912  141.3049  155.9126 N   0  0  0  0  0  0  0  0  0  0  0  0
  149.0605  141.6938  154.4939 C   0  0  0  0  0  0  0  0  0  0  0  0
  148.1286  140.7400  153.7252 C   0  0  0  0  0  0  0  0  0  0  0  0
  146.7608  140.6126  154.4174 C   0  0  0  0  0  0  0  0  0  0  0  0
  145.9123  139.6466  153.7255 N   0  0  0  0  0  0  0  0  0  0  0  0
  146.1684  138.3360  153.6125 C   0  0  0  0  0  0  0  0  0  0  0  0
  147.1544  137.7796  154.0967 O   0  0  0  0  0  0  0  0  0  0  0  0
  145.2232  137.7025  152.9041 N   0  0  0  0  0  0  0  0  0  0  0  0
  145.2243  136.2758  152.6036 C   0  0  0  0  0  0  0  0  0  0  0  0
  145.2804  136.0155  151.0890 C   0  0  0  0  0  0  0  0  0  0  0  0
  145.3010  134.5349  150.7634 C   0  0  0  0  0  0  0  0  0  0  0  0
  144.1713  133.9047  150.1958 C   0  0  0  0  0  0  0  0  0  0  0  0
  144.2222  132.5251  149.9060 C   0  0  0  0  0  0  0  0  0  0  0  0
  145.4014  131.8066  150.1912 C   0  0  0  0  0  0  0  0  0  0  0  0
  146.4619  132.4436  150.7349 N   0  3  0  0  0  0  0  0  0  0  0  0
  146.4531  133.7629  151.0267 C   0  0  0  0  0  0  0  0  0  0  0  0
  146.9684  140.1713  155.8735 C   0  0  0  0  0  0  0  0  0  0  0  0
  147.9086  141.1308  156.6237 C   0  0  0  0  0  0  0  0  0  0  0  0
  152.3918  141.2100  157.9117 H   0  0  0  0  0  0  0  0  0  0  0  0
  150.8433  141.9417  158.3664 H   0  0  0  0  0  0  0  0  0  0  0  0
  151.7435  142.5507  156.9510 H   0  0  0  0  0  0  0  0  0  0  0  0
  148.6587  142.7068  154.4512 H   0  0  0  0  0  0  0  0  0  0  0  0
  150.0401  141.7320  154.0184 H   0  0  0  0  0  0  0  0  0  0  0  0
  148.0007  141.1072  152.7063 H   0  0  0  0  0  0  0  0  0  0  0  0
  148.5923  139.7580  153.6367 H   0  0  0  0  0  0  0  0  0  0  0  0
  146.2674  141.5867  154.4192 H   0  0  0  0  0  0  0  0  0  0  0  0
  145.0742  140.0068  153.2929 H   0  0  0  0  0  0  0  0  0  0  0  0
  144.4491  138.2445  152.5482 H   0  0  0  0  0  0  0  0  0  0  0  0
  146.0626  135.7922  153.1082 H   0  0  0  0  0  0  0  0  0  0  0  0
  144.3164  135.8410  153.0226 H   0  0  0  0  0  0  0  0  0  0  0  0
  144.4244  136.4799  150.5974 H   0  0  0  0  0  0  0  0  0  0  0  0
  146.1693  136.4773  150.6571 H   0  0  0  0  0  0  0  0  0  0  0  0
  143.2750  134.4699  149.9849 H   0  0  0  0  0  0  0  0  0  0  0  0
  143.3684  132.0259  149.4710 H   0  0  0  0  0  0  0  0  0  0  0  0
  145.5274  130.7503  150.0026 H   0  0  0  0  0  0  0  0  0  0  0  0
  147.3609  134.1576  151.4599 H   0  0  0  0  0  0  0  0  0  0  0  0
  146.0082  140.1289  156.3893 H   0  0  0  0  0  0  0  0  0  0  0  0
  147.3722  139.1597  155.9011 H   0  0  0  0  0  0  0  0  0  0  0  0
  148.0815  140.7757  157.6392 H   0  0  0  0  0  0  0  0  0  0  0  0
  147.4327  142.1076  156.7171 H   0  0  0  0  0  0  0  0  0  0  0  0
  147.3057  131.9052  150.9336 H   0  0  0  0  0  0  0  0  0  0  0  0
  1  2  1  0  0  0  0
  1 23  1  0  0  0  0
  1 24  1  0  0  0  0
  1 25  1  0  0  0  0
  2  3  2  0  0  0  0
  2  4  2  0  0  0  0
  2  5  1  0  0  0  0
  5 22  1  0  0  0  0
  5  6  1  0  0  0  0
  6  7  1  0  0  0  0
  6 26  1  0  0  0  0
  6 27  1  0  0  0  0
  7  8  1  0  0  0  0
  7 28  1  0  0  0  0
  7 29  1  0  0  0  0
  8  9  1  0  0  0  0
  8 21  1  0  0  0  0
  8 30  1  0  0  0  0
  9 10  1  0  0  0  0
  9 31  1  0  0  0  0
 10 11  2  0  0  0  0
 10 12  1  0  0  0  0
 12 13  1  0  0  0  0
 12 32  1  0  0  0  0
 13 14  1  0  0  0  0
 13 33  1  0  0  0  0
 13 34  1  0  0  0  0
 14 15  1  0  0  0  0
 14 35  1  0  0  0  0
 14 36  1  0  0  0  0
 15 20  1  0  0  0  0
 15 16  2  0  0  0  0
 16 17  1  0  0  0  0
 16 37  1  0  0  0  0
 17 18  2  0  0  0  0
 17 38  1  0  0  0  0
 18 19  1  0  0  0  0
 18 39  1  0  0  0  0
 19 20  2  0  0  0  0
 19 45  1  0  0  0  0
 20 40  1  0  0  0  0
 21 22  1  0  0  0  0
 21 41  1  0  0  0  0
 21 42  1  0  0  0  0
 22 43  1  0  0  0  0
 22 44  1  0  0  0  0
M  CHG  1  19   1
M  END
> <s_m_source_file>
AV-unprocessed.smi

> <i_m_source_file_index>
2169

> <i_lp_mmshare_version>
43012

> <i_f3d_flags>
0

> <s_epik_input>
W0NIM11TKD1PKSg9TylOMVtDSDJdW0NIMl1bQ0hdKFtDSDJdW0NIMl0xKVtOSF1DKD1PKVtOSF1bQ0gyXVtDSDJdYzJbY0hdW2NIXVtjSF1uW2NIXTI=

> <s_epik_cmdline>
J2VwaWtfcHl0aG9uJywgJy1waCcsICc3LjAnLCAnLXRuJywgJzgnLCAnLW1hJywgJzIwMCcsICctbWV0YWxfYmluZGluZycsICctaW1hZScsICc8aW5maWxlLm1hZT4nLCAnLW9tYWUnLCAnPG91dGZpbGUubWFlPic=

> <r_epik_Ionization_Penalty>
2.21124

> <r_epik_Ionization_Penalty_Charging>
2.21119

> <r_epik_Ionization_Penalty_Neutral>
4.90089e-05

> <r_epik_State_Penalty>
2.35542

> <r_epik_Charging_Adjusted_Penalty>
4.56661

> <i_epik_Tot_Q>
1

> <i_epik_Tot_abs_Q>
1

> <r_epik_Metal_State_Penalty>
2.36951

> <b_epik_Metal_Only>
0

> <s_lp_Force_Field>
OPLS_2005

> <r_lp_Energy>
3.64161

> <b_lp_Chiralities_Consistent>
1

> <s_lp_Variant>
AV-unprocessed.smi:2169-2

> <Gold.Version>
5.8.1

> <Gold.Id.Protein>
6NUR|6NUR_protein|mol2

> <Gold.PLP.Fitness>
44.8969

> <Gold.PLP.PLP>
-35.7670

> <Gold.PLP.part.hbond>
-3.3821

> <Gold.PLP.part.metal>
0.0000

> <Gold.PLP.part.buried>
-3.7510

> <Gold.PLP.part.nonpolar>
-28.5749

> <Gold.PLP.part.repulsive>
0.2131

> <Gold.PLP.ligand.clash>
0.0000

> <Gold.PLP.ligand.torsion>
1.1689

> <Gold.PLP.Chemscore.Hbond>
3.1192

> <Gold.PLP.Chemscore.CHOScore>
0.0000

> <Gold.PLP.Chemscore.Metal>
0.0000

> <Gold.Chemscore.Hbonds>
donor molecule, donor type, donor heavy atom, donor atom, acceptor molecule, acceptor atom, score
      L1  H     9    31       P1 10175  1.00
      L1  H    12    32       P1 10175  0.20
      L1  H    19    45       P1 10747  0.87
      P1  H  7989  7998       L1     3  1.00

> <Gold.PLP.Chemscore.Internal.Correction>
2.1100

> <Gold.Rescore>
     Score         DG    S(hbond)    S(metal)    S(lipo)     H(rot)  DE(clash)    DE(int)     intcor
     18.36     -20.96       2.99        0.00      84.78       1.73       0.36       2.23       ----

> <Gold.Chemscore.Fitness>
18.3600

> <Gold.Chemscore.DG>
-20.9568

> <Gold.Chemscore.ZeroCoef>
-5.4800

> <Gold.Chemscore.Hbond>
2.9896

> <Gold.Chemscore.Metal>
0.0000

> <Gold.Chemscore.Lipo>
84.7833

> <Gold.Chemscore.Internal_Hbond>
0.0000

> <Gold.Chemscore.DEClash>
0.3638

> <Gold.Chemscore.DEInternal>
2.2330

> <Gold.Chemscore.Rot>
1.7297

> <Gold.Chemscore.Internal.Correction>
   9.000000E+99

> <Gold.Chemscore.Hbonds>
donor molecule, donor type, donor heavy atom, donor atom, acceptor molecule, acceptor atom, score
      L1  H     9    31       P1 10175  1.00
      L1  H    12    32       P1 10175  0.20
      L1  H    19    45       P1 10747  0.81
      P1  H  7989  7998       L1     3  0.94

> <Gold.Chemscore.Hbond.Weighted>
-9.9851

> <Gold.Chemscore.Metal.Weighted>
-0.0000

> <Gold.Chemscore.Lipo.Weighted>
-9.9196

> <Gold.Chemscore.Internal_Hbond.Weighted>
0.0000

> <Gold.Chemscore.DEClash.Weighted>
0.3638

> <Gold.Chemscore.DEInternal.Weighted>
2.2330

> <Gold.Chemscore.Rot.Weighted>
4.4280

> <Gold.Chemscore.Internal.Correction.Weighted>
   9.000000E+99

> <Gold.Protein.RotatedTorsions>
[ 6907 6896 6895 6894 ] final -115.07 input  -60.11 | X-H torsion
[ 7974 7965 7964 7962 ] final   18.76 input  175.53 | X-H torsion
[ 8008 7997 7996 7995 ] final  156.11 input   59.86 | X-H torsion
[ 10167 10162 10161 10158 ] final  139.70 input  -65.29 | X-H torsion
[ 10718 10713 10712 10709 ] final -137.09 input   66.30 | X-H torsion
[ 10763 10752 10751 10750 ] final   -0.67 input  -60.55 | X-H torsion
[ 11005 11000 10999 10996 ] final   86.14 input  -57.11 | X-H torsion

> <Gold.Protein.ActiveResidues>
 VAL166  LYS551  ARG553  GLY616  TRP617  ASP618  TYR619  PRO620  LYS621  CYS622 
 ASP623  PHE694  ASN695  SER759  ASP760  ASP761  ALA762  ILE779  LEU786  VAL792 
 PHE793  MET794  SER795  GLU796  ALA797  LYS798  CYS799  TRP800  GLU811  SER814 

> <Gold.Protein.RotatedAtoms>
  150.7950  133.8710  159.3258 H   0  0  0  0  0  0  0  0  0  0  0  0  # atno 6907 bound_to 6896
  151.6538  135.0996  160.0175 H   0  0  0  0  0  0  0  0  0  0  0  0  # atno 6908 bound_to 6896
  152.4030  133.6807  159.6368 H   0  0  0  0  0  0  0  0  0  0  0  0  # atno 6909 bound_to 6896
  146.2173  139.8410  142.8641 H   0  0  0  0  0  0  0  0  0  0  0  0  # atno 7974 bound_to 7965
  156.2441  140.1921  156.6905 H   0  0  0  0  0  0  0  0  0  0  0  0  # atno 8008 bound_to 7997
  154.6255  140.0603  156.9694 H   0  0  0  0  0  0  0  0  0  0  0  0  # atno 8009 bound_to 7997
  155.1794  140.3275  155.4380 H   0  0  0  0  0  0  0  0  0  0  0  0  # atno 8010 bound_to 7997
  139.5071  144.6279  151.5892 H   0  0  0  0  0  0  0  0  0  0  0  0  # atno 10167 bound_to 10162
  156.2843  130.7338  151.1345 H   0  0  0  0  0  0  0  0  0  0  0  0  # atno 10718 bound_to 10713
  153.3349  135.6977  153.6916 H   0  0  0  0  0  0  0  0  0  0  0  0  # atno 10763 bound_to 10752
  153.5704  135.3517  155.2836 H   0  0  0  0  0  0  0  0  0  0  0  0  # atno 10764 bound_to 10752
  154.8625  135.4271  154.2547 H   0  0  0  0  0  0  0  0  0  0  0  0  # atno 10765 bound_to 10752
  139.8952  134.8335  156.2680 H   0  0  0  0  0  0  0  0  0  0  0  0  # atno 11005 bound_to 11000
  145.2899  141.0164  143.3669 LP  0  0  0  0  0  0  0  0  0  0  0  0  # atno 17320 bound_to 7965
  144.9086  139.4558  143.6598 LP  0  0  0  0  0  0  0  0  0  0  0  0  # atno 17321 bound_to 7965
  140.6002  143.9624  150.6381 LP  0  0  0  0  0  0  0  0  0  0  0  0  # atno 17342 bound_to 10162
  140.2833  143.3374  152.1131 LP  0  0  0  0  0  0  0  0  0  0  0  0  # atno 17343 bound_to 10162
  157.7324  131.0600  150.5631 LP  0  0  0  0  0  0  0  0  0  0  0  0  # atno 17370 bound_to 10713
  156.5740  130.4287  149.6006 LP  0  0  0  0  0  0  0  0  0  0  0  0  # atno 17371 bound_to 10713
  141.0119  133.7090  156.1126 LP  0  0  0  0  0  0  0  0  0  0  0  0  # atno 17394 bound_to 11000
  140.7355  134.4208  157.5561 LP  0  0  0  0  0  0  0  0  0  0  0  0  # atno 17395 bound_to 11000

$$$$
