#       Name:                AV-unprocessed.smi:1728
#       Creating user name   scv26
#       Creation time:       Fri Mar 27 08:18:11 2020


#       File generated by GOLD software.
#

@<TRIPOS>MOLECULE
AV-unprocessed.smi:1728
    54    55     1
SMALL
NO_CHARGES


@<TRIPOS>ATOM
      1 ****        -5.2736   0.2957  -1.0672 C.3            1 S1                 0.0000
      2 ****        -3.9811   0.7690  -0.7047 O.3            1 S1                 0.0000
      3 ****        -3.8709   2.0283  -0.1458 C.ar           1 S1                 0.0000
      4 ****        -5.0000   2.7643   0.0113 N.ar           1 S1                 0.0000
      5 ****        -4.8959   3.9916   0.5605 C.ar           1 S1                 0.0000
      6 ****        -3.6739   4.5438   0.9850 C.ar           1 S1                 0.0000
      7 ****        -2.5015   3.7824   0.8243 C.ar           1 S1                 0.0000
      8 ****        -2.5915   2.4962   0.2369 C.ar           1 S1                 0.0000
      9 ****        -1.4801   1.6299   0.0344 N.am           1 S1                 0.0000
     10 ****        -0.1655   1.9072   0.0677 C.2            1 S1                 0.0000
     11 ****         0.3307   3.0125   0.2828 O.2            1 S1                 0.0000
     12 ****         0.5620   0.8111  -0.1783 N.am           1 S1                 0.0000
     13 ****         2.0210   0.7698  -0.1986 C.3            1 S1                 0.0000
     14 ****         2.5627  -0.6020  -0.6926 C.3            1 S1                 0.0000
     15 ****         2.1979  -0.6945  -2.1964 C.3            1 S1                 0.0000
     16 ****         4.1065  -0.5482  -0.5974 C.3            1 S1                 0.0000
     17 ****         1.9699  -1.7346   0.0729 N.3            1 S1                 0.0000
     18 ****         2.3486  -3.0698  -0.4035 C.3            1 S1                 0.0000
     19 ****         1.6054  -4.1855   0.3513 C.3            1 S1                 0.0000
     20 ****         1.8476  -4.0648   1.7477 O.3            1 S1                 0.0000
     21 ****         1.4399  -2.8028   2.2618 C.3            1 S1                 0.0000
     22 ****         2.1842  -1.6776   1.5238 C.3            1 S1                 0.0000
     23 ****        -5.1848  -0.7053  -1.4887 H              1 S1                 0.0000
     24 ****        -5.7363   0.9323  -1.8227 H              1 S1                 0.0000
     25 ****        -5.9320   0.2317  -0.1998 H              1 S1                 0.0000
     26 ****        -5.8148   4.5483   0.6695 H              1 S1                 0.0000
     27 ****        -3.6370   5.5281   1.4277 H              1 S1                 0.0000
     28 ****        -1.5676   4.1990   1.1659 H              1 S1                 0.0000
     29 ****        -1.7216   0.6809  -0.2122 H              1 S1                 0.0000
     30 ****         0.0806  -0.0603  -0.3473 H              1 S1                 0.0000
     31 ****         2.3877   1.5714  -0.8427 H              1 S1                 0.0000
     32 ****         2.3967   1.0089   0.7970 H              1 S1                 0.0000
     33 ****         2.4777   0.2127  -2.7332 H              1 S1                 0.0000
     34 ****         1.1271  -0.8405  -2.3435 H              1 S1                 0.0000
     35 ****         2.7147  -1.5127  -2.6978 H              1 S1                 0.0000
     36 ****         4.5048   0.2889  -1.1720 H              1 S1                 0.0000
     37 ****         4.5758  -1.4494  -0.9912 H              1 S1                 0.0000
     38 ****         4.4509  -0.4165   0.4281 H              1 S1                 0.0000
     39 ****         2.1270  -3.1826  -1.4631 H              1 S1                 0.0000
     40 ****         3.4215  -3.2215  -0.2856 H              1 S1                 0.0000
     41 ****         0.5331  -4.1372   0.1548 H              1 S1                 0.0000
     42 ****         1.9489  -5.1636   0.0142 H              1 S1                 0.0000
     43 ****         0.3605  -2.6873   2.1524 H              1 S1                 0.0000
     44 ****         1.6592  -2.7651   3.3289 H              1 S1                 0.0000
     45 ****         3.2476  -1.7516   1.7514 H              1 S1                 0.0000
     46 ****         1.8380  -0.7301   1.9325 H              1 S1                 0.0000
     47 ****        -3.4222   0.7645  -1.5339 LP             1 S1                 0.0000
     48 ****        -3.6036   0.1194  -0.0447 LP             1 S1                 0.0000
     49 ****        -5.8887   2.4050  -0.2735 LP             1 S1                 0.0000
     50 ****        -0.2600   3.8013   0.4527 LP             1 S1                 0.0000
     51 ****         1.3247   3.1220   0.2877 LP             1 S1                 0.0000
     52 ****         0.9959  -1.5998  -0.1094 LP             1 S1                 0.0000
     53 ****         2.8270  -4.1784   1.9148 LP             1 S1                 0.0000
     54 ****         1.3425  -4.7842   2.2246 LP             1 S1                 0.0000
@<TRIPOS>BOND
    1    1    2 1     
    2    1   23 1     
    3    1   24 1     
    4    1   25 1     
    5    2    3 1     
    6    3    8 ar    
    7    3    4 ar    
    8    4    5 ar    
    9    5    6 ar    
   10    5   26 1     
   11    6    7 ar    
   12    6   27 1     
   13    7    8 ar    
   14    7   28 1     
   15    8    9 1     
   16    9   10 am    
   17    9   29 1     
   18   10   11 2     
   19   10   12 am    
   20   12   13 1     
   21   12   30 1     
   22   13   14 1     
   23   13   31 1     
   24   13   32 1     
   25   14   15 1     
   26   14   16 1     
   27   14   17 1     
   28   15   33 1     
   29   15   34 1     
   30   15   35 1     
   31   16   36 1     
   32   16   37 1     
   33   16   38 1     
   34   17   22 1     
   35   17   18 1     
   36   18   19 1     
   37   18   39 1     
   38   18   40 1     
   39   19   20 1     
   40   19   41 1     
   41   19   42 1     
   42   20   21 1     
   43   21   22 1     
   44   21   43 1     
   45   21   44 1     
   46   22   45 1     
   47   22   46 1     
   48    2   47 1     
   49    2   48 1     
   50    4   49 1     
   51   11   50 1     
   52   11   51 1     
   53   17   52 1     
   54   20   53 1     
   55   20   54 1     
@<TRIPOS>SUBSTRUCTURE
      1 S1             1
@<TRIPOS>SET
LONE_PAIRS      STATIC     ATOMS    <user>   **** ""
8 47 48 49 50 51 52 53 54
DONOR_HYDROGENS      STATIC     ATOMS    <user>   **** ""
2 29 30
ATOM$BLUE        STATIC     ATOMS    COLORGROUP SYSTEM
8 47 48 49 50 51 52 53 54
ATOM$RED        STATIC     ATOMS    COLORGROUP SYSTEM
2 29 30
