AV-unprocessed.smi:152|AV-procd|sdf|1249|dock3
  -GOLD-   2262018473D 1   1.00000     0.00000
 Structure written by MMmdl.
 58 61  0  0  0  0  0  0  0  0  2 V2000
  153.7873  140.9497  160.4338 C   0  0  0  0  0  0  0  0  0  0  0  0
  153.6147  142.4585  160.6542 C   0  0  0  0  0  0  0  0  0  0  0  0
  152.2925  142.9422  160.1868 N   0  3  1  0  0  0  0  0  0  0  0  0
  151.9980  144.3565  160.5306 C   0  0  0  0  0  0  0  0  0  0  0  0
  151.5629  145.0504  159.2371 C   0  0  0  0  0  0  0  0  0  0  0  0
  151.1131  143.9041  158.3436 C   0  0  0  0  0  0  0  0  0  0  0  0
  152.0653  142.7706  158.7324 C   0  0  2  0  0  0  0  0  0  0  0  0
  151.5062  141.3685  158.4026 C   0  0  0  0  0  0  0  0  0  0  0  0
  151.6681  140.9874  157.0000 N   0  0  0  0  0  0  0  0  0  0  0  0
  150.7044  141.5305  156.0528 C   0  0  0  0  0  0  0  0  0  0  0  0
  152.0046  139.7078  156.7083 C   0  0  0  0  0  0  0  0  0  0  0  0
  153.1794  139.2538  157.2123 N   0  0  0  0  0  0  0  0  0  0  0  0
  153.5733  137.9995  156.9742 C   0  0  0  0  0  0  0  0  0  0  0  0
  152.9564  137.0518  156.2665 N   0  0  0  0  0  0  0  0  0  0  0  0
  151.7834  137.5078  155.7417 C   0  0  0  0  0  0  0  0  0  0  0  0
  151.2340  138.8107  155.9113 C   0  0  0  0  0  0  0  0  0  0  0  0
  150.0264  138.9026  155.2279 N   0  0  0  0  0  0  0  0  0  0  0  0
  149.8698  137.7239  154.6910 C   0  0  0  0  0  0  0  0  0  0  0  0
  150.8822  136.8264  154.9424 N   0  0  0  0  0  0  0  0  0  0  0  0
  150.9644  135.4534  154.4684 C   0  0  0  0  0  0  0  0  0  0  0  0
  149.8725  134.5176  155.0456 C   0  0  0  0  0  0  0  0  0  0  0  0
  148.6135  134.9982  154.6085 O   0  0  0  0  0  0  0  0  0  0  0  0
  150.0589  133.0846  154.5075 C   0  0  0  0  0  0  0  0  0  0  0  0
  149.1060  132.0818  155.1816 C   0  0  0  0  0  0  0  0  0  0  0  0
  149.2712  132.1297  156.5935 O   0  0  0  0  0  0  0  0  0  0  0  0
  148.9315  133.3966  157.1436 C   0  0  0  0  0  0  0  0  0  0  0  0
  149.8692  134.4845  156.5898 C   0  0  0  0  0  0  0  0  0  0  0  0
  154.7807  140.6270  160.7466 H   0  0  0  0  0  0  0  0  0  0  0  0
  153.6712  140.6899  159.3812 H   0  0  0  0  0  0  0  0  0  0  0  0
  153.0610  140.3707  161.0043 H   0  0  0  0  0  0  0  0  0  0  0  0
  153.7542  142.7114  161.7064 H   0  0  0  0  0  0  0  0  0  0  0  0
  154.4002  142.9769  160.1038 H   0  0  0  0  0  0  0  0  0  0  0  0
  151.1898  144.3681  161.2624 H   0  0  0  0  0  0  0  0  0  0  0  0
  152.8507  144.8717  160.9751 H   0  0  0  0  0  0  0  0  0  0  0  0
  150.7820  145.7945  159.3978 H   0  0  0  0  0  0  0  0  0  0  0  0
  152.4172  145.5546  158.7831 H   0  0  0  0  0  0  0  0  0  0  0  0
  150.0825  143.6361  158.5804 H   0  0  0  0  0  0  0  0  0  0  0  0
  151.1613  144.1516  157.2824 H   0  0  0  0  0  0  0  0  0  0  0  0
  153.0176  142.9418  158.2283 H   0  0  0  0  0  0  0  0  0  0  0  0
  151.9647  140.6090  159.0350 H   0  0  0  0  0  0  0  0  0  0  0  0
  150.4430  141.3456  158.6441 H   0  0  0  0  0  0  0  0  0  0  0  0
  149.7868  140.9403  156.0553 H   0  0  0  0  0  0  0  0  0  0  0  0
  151.1096  141.5313  155.0401 H   0  0  0  0  0  0  0  0  0  0  0  0
  150.4476  142.5589  156.3072 H   0  0  0  0  0  0  0  0  0  0  0  0
  154.5187  137.7142  157.4119 H   0  0  0  0  0  0  0  0  0  0  0  0
  149.0095  137.4768  154.0856 H   0  0  0  0  0  0  0  0  0  0  0  0
  150.9196  135.4627  153.3785 H   0  0  0  0  0  0  0  0  0  0  0  0
  151.9532  135.0721  154.7268 H   0  0  0  0  0  0  0  0  0  0  0  0
  148.7222  135.3997  153.7599 H   0  0  0  0  0  0  0  0  0  0  0  0
  149.9240  133.0609  153.4253 H   0  0  0  0  0  0  0  0  0  0  0  0
  151.0837  132.7609  154.6937 H   0  0  0  0  0  0  0  0  0  0  0  0
  148.0671  132.2845  154.9170 H   0  0  0  0  0  0  0  0  0  0  0  0
  149.3259  131.0709  154.8376 H   0  0  0  0  0  0  0  0  0  0  0  0
  147.8878  133.6303  156.9284 H   0  0  0  0  0  0  0  0  0  0  0  0
  149.0237  133.3433  158.2286 H   0  0  0  0  0  0  0  0  0  0  0  0
  150.8805  134.2859  156.9468 H   0  0  0  0  0  0  0  0  0  0  0  0
  149.5835  135.4541  156.9997 H   0  0  0  0  0  0  0  0  0  0  0  0
  151.5881  142.3849  160.6487 H   0  0  0  0  0  0  0  0  0  0  0  0
  1  2  1  0  0  0  0
  1 28  1  0  0  0  0
  1 29  1  0  0  0  0
  1 30  1  0  0  0  0
  2  3  1  0  0  0  0
  2 31  1  0  0  0  0
  2 32  1  0  0  0  0
  3  7  1  0  0  0  0
  3  4  1  0  0  0  0
  3 58  1  0  0  0  0
  4  5  1  0  0  0  0
  4 33  1  0  0  0  0
  4 34  1  0  0  0  0
  5  6  1  0  0  0  0
  5 35  1  0  0  0  0
  5 36  1  0  0  0  0
  6  7  1  0  0  0  0
  6 37  1  0  0  0  0
  6 38  1  0  0  0  0
  7  8  1  0  0  0  0
  7 39  1  0  0  0  0
  8  9  1  0  0  0  0
  8 40  1  0  0  0  0
  8 41  1  0  0  0  0
  9 10  1  0  0  0  0
  9 11  1  0  0  0  0
 10 42  1  0  0  0  0
 10 43  1  0  0  0  0
 10 44  1  0  0  0  0
 11 16  1  0  0  0  0
 11 12  2  0  0  0  0
 12 13  1  0  0  0  0
 13 14  2  0  0  0  0
 13 45  1  0  0  0  0
 14 15  1  0  0  0  0
 15 19  1  0  0  0  0
 15 16  2  0  0  0  0
 16 17  1  0  0  0  0
 17 18  2  0  0  0  0
 18 19  1  0  0  0  0
 18 46  1  0  0  0  0
 19 20  1  0  0  0  0
 20 21  1  0  0  0  0
 20 47  1  0  0  0  0
 20 48  1  0  0  0  0
 21 27  1  0  0  0  0
 21 22  1  0  0  0  0
 21 23  1  0  0  0  0
 22 49  1  0  0  0  0
 23 24  1  0  0  0  0
 23 50  1  0  0  0  0
 23 51  1  0  0  0  0
 24 25  1  0  0  0  0
 24 52  1  0  0  0  0
 24 53  1  0  0  0  0
 25 26  1  0  0  0  0
 26 27  1  0  0  0  0
 26 54  1  0  0  0  0
 26 55  1  0  0  0  0
 27 56  1  0  0  0  0
 27 57  1  0  0  0  0
M  CHG  1   3   1
M  END
> <s_m_source_file>
AV-unprocessed.smi

> <i_m_source_file_index>
152

> <i_lp_mmshare_version>
43012

> <i_f3d_flags>
0

> <s_epik_input>
W0NIM11bQ0gyXU4xW0NIMl1bQ0gyXVtDSDJdW0NASF0xW0NIMl1OKFtDSDNdKWMobltjSF1uMiljKGMyMyluW2NIXW4zW0NIMl1DNChbT0hdKVtDSDJdW0NIMl1PW0NIMl1bQ0gyXTQ=

> <s_epik_cmdline>
J2VwaWtfcHl0aG9uJywgJy1waCcsICc3LjAnLCAnLXRuJywgJzgnLCAnLW1hJywgJzIwMCcsICctbWV0YWxfYmluZGluZycsICctaW1hZScsICc8aW5maWxlLm1hZT4nLCAnLW9tYWUnLCAnPG91dGZpbGUubWFlPic=

> <r_lp_tautomer_probability>
1

> <r_epik_Ionization_Penalty>
0.00152183

> <r_epik_Ionization_Penalty_Charging>
0.00112577

> <r_epik_Ionization_Penalty_Neutral>
0.000396066

> <r_epik_State_Penalty>
-0

> <r_epik_Charging_Adjusted_Penalty>
0.00112577

> <i_epik_Tot_Q>
1

> <i_epik_Tot_abs_Q>
1

> <r_epik_Metal_State_Penalty>
-0

> <b_epik_Metal_Only>
0

> <s_lp_Force_Field>
OPLS_2005

> <r_lp_Energy>
45.0855

> <b_lp_Chiralities_Consistent>
1

> <s_lp_Variant>
AV-unprocessed.smi:152-4

> <Gold.Version>
5.8.1

> <Gold.Id.Protein>
6NUR|6NUR_protein|mol2

> <Gold.PLP.Fitness>
54.1892

> <Gold.PLP.PLP>
-43.2273

> <Gold.PLP.part.hbond>
-3.0000

> <Gold.PLP.part.metal>
0.0000

> <Gold.PLP.part.buried>
-4.7815

> <Gold.PLP.part.nonpolar>
-35.4400

> <Gold.PLP.part.repulsive>
0.1348

> <Gold.PLP.ligand.clash>
0.0000

> <Gold.PLP.ligand.torsion>
0.9071

> <Gold.PLP.Chemscore.Hbond>
3.0000

> <Gold.PLP.Chemscore.CHOScore>
0.9668

> <Gold.PLP.Chemscore.Metal>
0.0000

> <Gold.Chemscore.Hbonds>
donor molecule, donor type, donor heavy atom, donor atom, acceptor molecule, acceptor atom, score
      L1  H    22    49       P1  7948  0.93
      P1  H  7997  8009       L1    12  0.82
      P1  H 10752 10765       L1    14  0.77
      L1  C    18    46       P1  7948  0.94

> <Gold.PLP.Chemscore.Internal.Correction>
0.8756

> <Gold.Rescore>
     Score         DG    S(hbond)    S(metal)    S(lipo)     H(rot)  DE(clash)    DE(int)     intcor
     15.37     -18.75       2.09        0.00     113.48       2.73       0.12       3.26       ----

> <Gold.Chemscore.Fitness>
15.3701

> <Gold.Chemscore.DG>
-18.7471

> <Gold.Chemscore.ZeroCoef>
-5.4800

> <Gold.Chemscore.Hbond>
2.0930

> <Gold.Chemscore.Metal>
0.0000

> <Gold.Chemscore.Lipo>
113.4839

> <Gold.Chemscore.Internal_Hbond>
0.0000

> <Gold.Chemscore.DEClash>
0.1179

> <Gold.Chemscore.DEInternal>
3.2590

> <Gold.Chemscore.Rot>
2.7348

> <Gold.Chemscore.Internal.Correction>
   9.000000E+99

> <Gold.Chemscore.Hbonds>
donor molecule, donor type, donor heavy atom, donor atom, acceptor molecule, acceptor atom, score
      L1  H    22    49       P1  7948  0.82
      P1  H  7997  8009       L1    12  0.18
      P1  H 10752 10765       L1    14  0.30

> <Gold.Chemscore.Hbond.Weighted>
-6.9906

> <Gold.Chemscore.Metal.Weighted>
-0.0000

> <Gold.Chemscore.Lipo.Weighted>
-13.2776

> <Gold.Chemscore.Internal_Hbond.Weighted>
0.0000

> <Gold.Chemscore.DEClash.Weighted>
0.1179

> <Gold.Chemscore.DEInternal.Weighted>
3.2590

> <Gold.Chemscore.Rot.Weighted>
7.0010

> <Gold.Chemscore.Internal.Correction.Weighted>
   9.000000E+99

> <Gold.Protein.RotatedTorsions>
[ 6907 6896 6895 6894 ] final  137.28 input  -60.11 | X-H torsion
[ 7974 7965 7964 7962 ] final   36.33 input  175.53 | X-H torsion
[ 8008 7997 7996 7995 ] final  147.70 input   59.86 | X-H torsion
[ 10167 10162 10161 10158 ] final  159.59 input  -65.29 | X-H torsion
[ 10718 10713 10712 10709 ] final  -76.03 input   66.30 | X-H torsion
[ 10763 10752 10751 10750 ] final -136.66 input  -60.55 | X-H torsion
[ 11005 11000 10999 10996 ] final  -89.79 input  -57.11 | X-H torsion

> <Gold.Protein.ActiveResidues>
 VAL166  LYS551  ARG553  GLY616  TRP617  ASP618  TYR619  PRO620  LYS621  CYS622 
 ASP623  PHE694  ASN695  SER759  ASP760  ASP761  ALA762  ILE779  LEU786  VAL792 
 PHE793  MET794  SER795  GLU796  ALA797  LYS798  CYS799  TRP800  GLU811  SER814 

> <Gold.Protein.RotatedAtoms>
  152.2799  133.5460  159.5490 H   0  0  0  0  0  0  0  0  0  0  0  0  # atno 6907 bound_to 6896
  150.7192  134.0579  159.3830 H   0  0  0  0  0  0  0  0  0  0  0  0  # atno 6908 bound_to 6896
  151.8490  135.0564  160.0507 H   0  0  0  0  0  0  0  0  0  0  0  0  # atno 6909 bound_to 6896
  146.1219  139.6031  142.9284 H   0  0  0  0  0  0  0  0  0  0  0  0  # atno 7974 bound_to 7965
  156.2816  140.2148  156.5580 H   0  0  0  0  0  0  0  0  0  0  0  0  # atno 8008 bound_to 7997
  154.7237  140.0501  157.0685 H   0  0  0  0  0  0  0  0  0  0  0  0  # atno 8009 bound_to 7997
  155.0445  140.3149  155.4716 H   0  0  0  0  0  0  0  0  0  0  0  0  # atno 8010 bound_to 7997
  139.4833  144.4715  151.8569 H   0  0  0  0  0  0  0  0  0  0  0  0  # atno 10167 bound_to 10162
  156.0188  130.4455  150.3132 H   0  0  0  0  0  0  0  0  0  0  0  0  # atno 10718 bound_to 10713
  154.8679  135.3666  154.5096 H   0  0  0  0  0  0  0  0  0  0  0  0  # atno 10763 bound_to 10752
  153.5732  135.7020  153.5500 H   0  0  0  0  0  0  0  0  0  0  0  0  # atno 10764 bound_to 10752
  153.3523  135.4069  155.1618 H   0  0  0  0  0  0  0  0  0  0  0  0  # atno 10765 bound_to 10752
  141.1578  133.7652  156.9646 H   0  0  0  0  0  0  0  0  0  0  0  0  # atno 11005 bound_to 11000
  145.5448  141.0418  143.2310 LP  0  0  0  0  0  0  0  0  0  0  0  0  # atno 17320 bound_to 7965
  144.7605  139.6969  143.7236 LP  0  0  0  0  0  0  0  0  0  0  0  0  # atno 17321 bound_to 7965
  140.4184  144.2275  150.5887 LP  0  0  0  0  0  0  0  0  0  0  0  0  # atno 17342 bound_to 10162
  140.4897  143.2351  151.8836 LP  0  0  0  0  0  0  0  0  0  0  0  0  # atno 17343 bound_to 10162
  157.1233  131.0252  151.3000 LP  0  0  0  0  0  0  0  0  0  0  0  0  # atno 17370 bound_to 10713
  157.4610  130.7653  149.7236 LP  0  0  0  0  0  0  0  0  0  0  0  0  # atno 17371 bound_to 10713
  140.1170  134.9441  157.2149 LP  0  0  0  0  0  0  0  0  0  0  0  0  # atno 17394 bound_to 11000
  140.3120  134.3013  155.7264 LP  0  0  0  0  0  0  0  0  0  0  0  0  # atno 17395 bound_to 11000

$$$$
