#       Name:                AV-unprocessed.smi:1464
#       Creating user name   scv26
#       Creation time:       Fri Mar 27 06:02:09 2020


#       File generated by GOLD software.
#

@<TRIPOS>MOLECULE
AV-unprocessed.smi:1464
    47    48     1
SMALL
NO_CHARGES


@<TRIPOS>ATOM
      1 ****        -3.9088  -0.1201  -1.1340 C.3            1 S1                 0.0000
      2 ****        -3.1641  -1.4617  -0.9746 C.3            1 S1                 0.0000
      3 ****        -3.6059  -2.2088   0.3003 C.3            1 S1                 0.0000
      4 ****        -3.0565  -1.5544   1.5776 C.3            1 S1                 0.0000
      5 ****        -1.5270  -1.4354   1.5248 C.3            1 S1                 0.0000
      6 ****        -1.0495  -0.6886   0.2642 C.3            1 S1                 0.0000
      7 ****         0.4128  -0.6922   0.2425 N.am           1 S1                 0.0000
      8 ****         1.2081   0.3868   0.3146 C.2            1 S1                 0.0000
      9 ****         0.7794   1.5382   0.4085 O.2            1 S1                 0.0000
     10 ****         2.7168   0.0967   0.2665 C.3            1 S1                 0.0000
     11 ****         3.5662   1.2921   0.3736 N.am           1 S1                 0.0000
     12 ****         4.1105   1.7451  -0.9038 N.pl3          1 S1                -1.0000
     13 ****         4.8856   2.8616  -0.9350 C.2            1 S1                 0.0000
     14 ****         5.3597   3.3149  -1.9740 O.2            1 S1                 0.0000
     15 ****         5.1629   3.5373   0.3217 C.2            1 S1                 0.0000
     16 ****         4.6709   3.0800   1.4899 C.2            1 S1                 0.0000
     17 ****         3.8292   1.8922   1.5696 C.2            1 S1                 0.0000
     18 ****         3.3833   1.4644   2.6346 O.2            1 S1                 0.0000
     19 ****        -1.6171  -1.3405  -1.0237 C.3            1 S1                 0.0000
     20 ****        -1.1215  -0.6574  -2.3140 C.3            1 S1                 0.0000
     21 ****        -3.6378   0.5974  -0.3601 H              1 S1                 0.0000
     22 ****        -4.9878  -0.2665  -1.0799 H              1 S1                 0.0000
     23 ****        -3.7014   0.3415  -2.0991 H              1 S1                 0.0000
     24 ****        -3.4679  -2.0795  -1.8209 H              1 S1                 0.0000
     25 ****        -4.6939  -2.2646   0.3485 H              1 S1                 0.0000
     26 ****        -3.2536  -3.2400   0.2517 H              1 S1                 0.0000
     27 ****        -3.4986  -0.5670   1.7129 H              1 S1                 0.0000
     28 ****        -3.3502  -2.1410   2.4485 H              1 S1                 0.0000
     29 ****        -1.1687  -0.9241   2.4194 H              1 S1                 0.0000
     30 ****        -1.0911  -2.4354   1.5471 H              1 S1                 0.0000
     31 ****        -1.4174   0.3368   0.3199 H              1 S1                 0.0000
     32 ****         0.8597  -1.5939   0.1614 H              1 S1                 0.0000
     33 ****         2.9649  -0.6026   1.0668 H              1 S1                 0.0000
     34 ****         2.9311  -0.4358  -0.6620 H              1 S1                 0.0000
     35 ****         5.7793   4.4243   0.3186 H              1 S1                 0.0000
     36 ****         4.9040   3.6127   2.3996 H              1 S1                 0.0000
     37 ****        -1.2326  -2.3615  -1.0575 H              1 S1                 0.0000
     38 ****        -1.3444   0.4097  -2.3143 H              1 S1                 0.0000
     39 ****        -1.5864  -1.0978  -3.1963 H              1 S1                 0.0000
     40 ****        -0.0431  -0.7636  -2.4332 H              1 S1                 0.0000
     41 ****        -0.2064   1.7042   0.4343 LP             1 S1                 0.0000
     42 ****         1.4173   2.3067   0.4589 LP             1 S1                 0.0000
     43 ****         3.9155   1.2404  -1.7448 LP             1 S1                 0.0000
     44 ****         5.1807   2.8591  -2.8459 LP             1 S1                 0.0000
     45 ****         5.9246   4.1397  -1.9477 LP             1 S1                 0.0000
     46 ****         2.8054   0.6484   2.6429 LP             1 S1                 0.0000
     47 ****         3.5991   1.9330   3.4912 LP             1 S1                 0.0000
@<TRIPOS>BOND
    1    1    2 1     
    2    1   21 1     
    3    1   22 1     
    4    1   23 1     
    5    2   19 1     
    6    2    3 1     
    7    2   24 1     
    8    3    4 1     
    9    3   25 1     
   10    3   26 1     
   11    4    5 1     
   12    4   27 1     
   13    4   28 1     
   14    5    6 1     
   15    5   29 1     
   16    5   30 1     
   17    6    7 1     
   18    6   19 1     
   19    6   31 1     
   20    7    8 am    
   21    7   32 1     
   22    8    9 2     
   23    8   10 1     
   24   10   33 1     
   25   10   34 1     
   26   10   11 1     
   27   11   12 1     
   28   11   17 am    
   29   12   13 1     
   30   13   14 2     
   31   13   15 1     
   32   15   35 1     
   33   15   16 2     
   34   16   36 1     
   35   16   17 1     
   36   17   18 2     
   37   19   20 1     
   38   19   37 1     
   39   20   38 1     
   40   20   39 1     
   41   20   40 1     
   42    9   41 1     
   43    9   42 1     
   44   12   43 1     
   45   14   44 1     
   46   14   45 1     
   47   18   46 1     
   48   18   47 1     
@<TRIPOS>SUBSTRUCTURE
      1 S1             1
@<TRIPOS>SET
LONE_PAIRS      STATIC     ATOMS    <user>   **** ""
7 41 42 43 44 45 46 47
DONOR_HYDROGENS      STATIC     ATOMS    <user>   **** ""
1 32
ATOM$BLUE        STATIC     ATOMS    COLORGROUP SYSTEM
7 41 42 43 44 45 46 47
ATOM$RED        STATIC     ATOMS    COLORGROUP SYSTEM
1 32
