#       Name:                AV-unprocessed.smi:244
#       Creating user name   scv26
#       Creation time:       Thu Mar 26 20:50:39 2020


#       File generated by GOLD software.
#

@<TRIPOS>MOLECULE
AV-unprocessed.smi:244
    67    71     1
SMALL
NO_CHARGES


@<TRIPOS>ATOM
      1 ****        -3.0340   2.2723  -2.3758 C.3            1 S1                 0.0000
      2 ****        -3.4031   1.4489  -1.2048 N.4            1 S1                 1.0000
      3 ****        -4.8565   1.1555  -1.1527 C.3            1 S1                 0.0000
      4 ****        -5.2205   0.4419   0.1581 C.3            1 S1                 0.0000
      5 ****        -4.3764  -0.8375   0.3475 C.3            1 S1                 0.0000
      6 ****        -4.6621  -1.5094   1.5762 O.3            1 S1                 0.0000
      7 ****        -4.2144  -0.8291   2.7472 C.3            1 S1                 0.0000
      8 ****        -2.7075  -0.5509   2.6522 C.3            1 S1                 0.0000
      9 ****        -2.4031   0.1695   1.4215 N.3            1 S1                 0.0000
     10 ****        -1.1278   0.6123   1.3851 C.ar           1 S1                 0.0000
     11 ****        -0.9465   1.9549   1.3504 N.ar           1 S1                 0.0000
     12 ****         0.2906   2.4581   1.2954 C.ar           1 S1                 0.0000
     13 ****         1.4555   1.8075   1.2618 N.ar           1 S1                 0.0000
     14 ****         1.2729   0.4560   1.2897 C.ar           1 S1                 0.0000
     15 ****         0.0242  -0.2226   1.3520 C.ar           1 S1                 0.0000
     16 ****         0.2293  -1.5967   1.3610 N.2            1 S1                 0.0000
     17 ****         1.5277  -1.7235   1.3180 C.2            1 S1                 0.0000
     18 ****         2.2315  -0.5413   1.2601 N.pl3          1 S1                 0.0000
     19 ****         3.6769  -0.3883   1.1948 C.3            1 S1                 0.0000
     20 ****         4.2442  -0.3596  -0.2466 C.3            1 S1                 0.0000
     21 ****         3.6931   0.7654  -0.9095 O.3            1 S1                 0.0000
     22 ****         5.7779  -0.2027  -0.2140 C.3            1 S1                 0.0000
     23 ****         6.4076  -0.3453  -1.6109 C.3            1 S1                 0.0000
     24 ****         6.0273  -1.5873  -2.1901 O.3            1 S1                 0.0000
     25 ****         4.6243  -1.6888  -2.3995 C.3            1 S1                 0.0000
     26 ****         3.8807  -1.6255  -1.0534 C.3            1 S1                 0.0000
     27 ****        -2.8634  -0.5412   0.2246 C.3            1 S1                 0.0000
     28 ****        -2.5888   0.2121  -1.1020 C.3            1 S1                 0.0000
     29 ****        -3.2317   1.7399  -3.3070 H              1 S1                 0.0000
     30 ****        -1.9749   2.5306  -2.3455 H              1 S1                 0.0000
     31 ****        -3.6013   3.2035  -2.3857 H              1 S1                 0.0000
     32 ****        -5.4217   2.0854  -1.2284 H              1 S1                 0.0000
     33 ****        -5.1391   0.5419  -2.0097 H              1 S1                 0.0000
     34 ****        -5.0632   1.1403   0.9793 H              1 S1                 0.0000
     35 ****        -6.2817   0.1920   0.1647 H              1 S1                 0.0000
     36 ****        -4.6505  -1.5311  -0.4484 H              1 S1                 0.0000
     37 ****        -4.7727   0.0944   2.8982 H              1 S1                 0.0000
     38 ****        -4.4213  -1.4561   3.6146 H              1 S1                 0.0000
     39 ****        -2.3811   0.0285   3.5170 H              1 S1                 0.0000
     40 ****        -2.1624  -1.4952   2.6742 H              1 S1                 0.0000
     41 ****         0.3578   3.5359   1.2722 H              1 S1                 0.0000
     42 ****         2.0114  -2.6897   1.3168 H              1 S1                 0.0000
     43 ****         3.9491   0.5244   1.7271 H              1 S1                 0.0000
     44 ****         4.1256  -1.2093   1.7558 H              1 S1                 0.0000
     45 ****         4.0625   0.8134  -1.7781 H              1 S1                 0.0000
     46 ****         6.0560   0.7559   0.2263 H              1 S1                 0.0000
     47 ****         6.2040  -0.9702   0.4335 H              1 S1                 0.0000
     48 ****         6.1145   0.4793  -2.2625 H              1 S1                 0.0000
     49 ****         7.4945  -0.3138  -1.5337 H              1 S1                 0.0000
     50 ****         4.2876  -0.8987  -3.0724 H              1 S1                 0.0000
     51 ****         4.4124  -2.6355  -2.8965 H              1 S1                 0.0000
     52 ****         4.1420  -2.5097  -0.4705 H              1 S1                 0.0000
     53 ****         2.8058  -1.6808  -1.2291 H              1 S1                 0.0000
     54 ****        -2.3333  -1.4942   0.1885 H              1 S1                 0.0000
     55 ****        -2.8291  -0.4377  -1.9451 H              1 S1                 0.0000
     56 ****        -1.5295   0.4507  -1.2055 H              1 S1                 0.0000
     57 ****        -3.1879   2.0034  -0.3879 H              1 S1                 0.0000
     58 ****        -4.2216  -2.4068   1.5500 LP             1 S1                 0.0000
     59 ****        -5.6529  -1.6264   1.6439 LP             1 S1                 0.0000
     60 ****        -2.9468   1.0088   1.4206 LP             1 S1                 0.0000
     61 ****        -1.7365   2.5677   1.3659 LP             1 S1                 0.0000
     62 ****         2.3492   2.2543   1.2213 LP             1 S1                 0.0000
     63 ****        -0.4590  -2.3214   1.3931 LP             1 S1                 0.0000
     64 ****         3.9154   1.5979  -0.4021 LP             1 S1                 0.0000
     65 ****         2.6998   0.6675  -0.9705 LP             1 S1                 0.0000
     66 ****         6.3139  -2.3259  -1.5799 LP             1 S1                 0.0000
     67 ****         6.4901  -1.6844  -3.0712 LP             1 S1                 0.0000
@<TRIPOS>BOND
    1    1    2 1     
    2    1   29 1     
    3    1   30 1     
    4    1   31 1     
    5    2   28 1     
    6    2    3 1     
    7    2   57 1     
    8    3    4 1     
    9    3   32 1     
   10    3   33 1     
   11    4    5 1     
   12    4   34 1     
   13    4   35 1     
   14    5   27 1     
   15    5    6 1     
   16    5   36 1     
   17    6    7 1     
   18    7    8 1     
   19    7   37 1     
   20    7   38 1     
   21    8    9 1     
   22    8   39 1     
   23    8   40 1     
   24    9   10 1     
   25    9   27 1     
   26   10   15 ar    
   27   10   11 ar    
   28   11   12 ar    
   29   12   13 ar    
   30   12   41 1     
   31   13   14 ar    
   32   14   18 1     
   33   14   15 ar    
   34   15   16 1     
   35   16   17 2     
   36   17   18 1     
   37   17   42 1     
   38   18   19 1     
   39   19   20 1     
   40   19   43 1     
   41   19   44 1     
   42   20   26 1     
   43   20   21 1     
   44   20   22 1     
   45   21   45 1     
   46   22   23 1     
   47   22   46 1     
   48   22   47 1     
   49   23   24 1     
   50   23   48 1     
   51   23   49 1     
   52   24   25 1     
   53   25   26 1     
   54   25   50 1     
   55   25   51 1     
   56   26   52 1     
   57   26   53 1     
   58   27   28 1     
   59   27   54 1     
   60   28   55 1     
   61   28   56 1     
   62    6   58 1     
   63    6   59 1     
   64    9   60 1     
   65   11   61 1     
   66   13   62 1     
   67   16   63 1     
   68   21   64 1     
   69   21   65 1     
   70   24   66 1     
   71   24   67 1     
@<TRIPOS>SUBSTRUCTURE
      1 S1             1
@<TRIPOS>SET
LONE_PAIRS      STATIC     ATOMS    <user>   **** ""
10 58 59 60 61 62 63 64 65 66 67
DONOR_HYDROGENS      STATIC     ATOMS    <user>   **** ""
2 57 45
ATOM$BLUE        STATIC     ATOMS    COLORGROUP SYSTEM
10 58 59 60 61 62 63 64 65 66 67
ATOM$RED        STATIC     ATOMS    COLORGROUP SYSTEM
2 57 45
