AV-unprocessed.smi:236|AV-procd|sdf|1814|dock2
  -GOLD-   2262020403D 1   1.00000     0.00000
 Structure written by MMmdl.
 58 62  0  0  0  0  0  0  0  0  1 V2000
  149.8080  138.6856  154.1986 C   0  0  0  0  0  0  0  0  0  0  0  0
  148.7368  139.5351  154.9015 C   0  0  1  0  0  0  0  0  0  0  0  0
  149.1918  139.9588  156.1786 O   0  0  0  0  0  0  0  0  0  0  0  0
  148.3529  141.0253  156.5831 C   0  0  0  0  0  0  0  0  0  0  0  0
  148.2441  141.8650  155.3163 C   0  0  0  0  0  0  0  0  0  0  0  0
  148.2794  140.8335  154.1841 C   0  0  1  0  0  0  0  0  0  0  0  0
  149.2284  141.2664  153.2231 O   0  0  0  0  0  0  0  0  0  0  0  0
  146.9064  140.6928  153.4809 C   0  0  0  0  0  0  0  0  0  0  0  0
  146.6933  139.3858  152.8766 N   0  0  0  0  0  0  0  0  0  0  0  0
  146.9117  139.0390  151.5619 C   0  0  0  0  0  0  0  0  0  0  0  0
  146.6516  137.7956  151.2623 N   0  0  0  0  0  0  0  0  0  0  0  0
  146.2123  137.2440  152.4595 C   0  0  0  0  0  0  0  0  0  0  0  0
  145.7706  135.9506  152.8575 C   0  0  0  0  0  0  0  0  0  0  0  0
  145.6850  134.8792  152.0420 N   0  0  0  0  0  0  0  0  0  0  0  0
  144.5881  134.9465  151.0856 C   0  0  0  0  0  0  0  0  0  0  0  0
  144.6709  133.7569  150.1154 C   0  0  0  0  0  0  0  0  0  0  0  0
  144.6890  132.5405  150.8571 O   0  0  0  0  0  0  0  0  0  0  0  0
  145.8190  132.4468  151.7231 C   0  0  2  0  0  0  0  0  0  0  0  0
  145.7870  131.0773  152.4134 C   0  0  0  0  0  0  0  0  0  0  0  0
  146.1541  130.0804  151.4746 O   0  0  0  0  0  0  0  0  0  0  0  0
  146.3696  128.8120  152.0737 C   0  0  0  0  0  0  0  0  0  0  0  0
  147.0790  127.8638  151.1238 C   0  0  0  0  0  0  0  0  0  0  0  0
  147.8406  126.6612  151.6427 C   0  0  0  0  0  0  0  0  0  0  0  0
  148.5919  127.8223  151.0496 C   0  0  0  0  0  0  0  0  0  0  0  0
  145.7486  133.6021  152.7405 C   0  0  0  0  0  0  0  0  0  0  0  0
  145.4014  135.7726  154.1492 N   0  0  0  0  0  0  0  0  0  0  0  0
  145.4586  136.7963  155.0065 C   0  0  0  0  0  0  0  0  0  0  0  0
  145.8482  138.0532  154.7820 N   0  0  0  0  0  0  0  0  0  0  0  0
  146.2233  138.2333  153.4827 C   0  0  0  0  0  0  0  0  0  0  0  0
  149.4732  138.3683  153.2108 H   0  0  0  0  0  0  0  0  0  0  0  0
  150.0274  137.7881  154.7768 H   0  0  0  0  0  0  0  0  0  0  0  0
  150.7419  139.2355  154.0794 H   0  0  0  0  0  0  0  0  0  0  0  0
  147.8685  138.9039  155.0923 H   0  0  0  0  0  0  0  0  0  0  0  0
  147.3779  140.6365  156.8816 H   0  0  0  0  0  0  0  0  0  0  0  0
  148.7771  141.5784  157.4214 H   0  0  0  0  0  0  0  0  0  0  0  0
  147.3496  142.4888  155.3107 H   0  0  0  0  0  0  0  0  0  0  0  0
  149.1059  142.5330  155.2656 H   0  0  0  0  0  0  0  0  0  0  0  0
  149.4498  140.5339  152.6688 H   0  0  0  0  0  0  0  0  0  0  0  0
  146.1020  140.8742  154.1950 H   0  0  0  0  0  0  0  0  0  0  0  0
  146.7968  141.4502  152.7034 H   0  0  0  0  0  0  0  0  0  0  0  0
  147.2795  139.7407  150.8276 H   0  0  0  0  0  0  0  0  0  0  0  0
  143.6330  134.9255  151.6112 H   0  0  0  0  0  0  0  0  0  0  0  0
  144.6329  135.8860  150.5331 H   0  0  0  0  0  0  0  0  0  0  0  0
  143.8090  133.7546  149.4482 H   0  0  0  0  0  0  0  0  0  0  0  0
  145.5608  133.8264  149.4878 H   0  0  0  0  0  0  0  0  0  0  0  0
  146.7389  132.5317  151.1414 H   0  0  0  0  0  0  0  0  0  0  0  0
  146.4982  131.0638  153.2407 H   0  0  0  0  0  0  0  0  0  0  0  0
  144.7969  130.8802  152.8277 H   0  0  0  0  0  0  0  0  0  0  0  0
  146.9730  128.9195  152.9762 H   0  0  0  0  0  0  0  0  0  0  0  0
  145.4164  128.3672  152.3626 H   0  0  0  0  0  0  0  0  0  0  0  0
  146.5535  127.7196  150.1817 H   0  0  0  0  0  0  0  0  0  0  0  0
  147.9052  126.5197  152.7198 H   0  0  0  0  0  0  0  0  0  0  0  0
  147.7900  125.7457  151.0569 H   0  0  0  0  0  0  0  0  0  0  0  0
  149.0407  127.6821  150.0686 H   0  0  0  0  0  0  0  0  0  0  0  0
  149.1571  128.4541  151.7320 H   0  0  0  0  0  0  0  0  0  0  0  0
  146.6242  133.5824  153.3909 H   0  0  0  0  0  0  0  0  0  0  0  0
  144.8704  133.4838  153.3768 H   0  0  0  0  0  0  0  0  0  0  0  0
  145.1483  136.5769  156.0173 H   0  0  0  0  0  0  0  0  0  0  0  0
  1  2  1  0  0  0  0
  1 30  1  0  0  0  0
  1 31  1  0  0  0  0
  1 32  1  0  0  0  0
  2  6  1  0  0  0  0
  2  3  1  0  0  0  0
  2 33  1  0  0  0  0
  3  4  1  0  0  0  0
  4  5  1  0  0  0  0
  4 34  1  0  0  0  0
  4 35  1  0  0  0  0
  5  6  1  0  0  0  0
  5 36  1  0  0  0  0
  5 37  1  0  0  0  0
  6  7  1  0  0  0  0
  6  8  1  0  0  0  0
  7 38  1  0  0  0  0
  8  9  1  0  0  0  0
  8 39  1  0  0  0  0
  8 40  1  0  0  0  0
  9 29  1  0  0  0  0
  9 10  1  0  0  0  0
 10 11  2  0  0  0  0
 10 41  1  0  0  0  0
 11 12  1  0  0  0  0
 12 29  2  0  0  0  0
 12 13  1  0  0  0  0
 13 14  1  0  0  0  0
 13 26  2  0  0  0  0
 14 25  1  0  0  0  0
 14 15  1  0  0  0  0
 15 16  1  0  0  0  0
 15 42  1  0  0  0  0
 15 43  1  0  0  0  0
 16 17  1  0  0  0  0
 16 44  1  0  0  0  0
 16 45  1  0  0  0  0
 17 18  1  0  0  0  0
 18 19  1  0  0  0  0
 18 25  1  0  0  0  0
 18 46  1  0  0  0  0
 19 20  1  0  0  0  0
 19 47  1  0  0  0  0
 19 48  1  0  0  0  0
 20 21  1  0  0  0  0
 21 22  1  0  0  0  0
 21 49  1  0  0  0  0
 21 50  1  0  0  0  0
 22 24  1  0  0  0  0
 22 23  1  0  0  0  0
 22 51  1  0  0  0  0
 23 24  1  0  0  0  0
 23 52  1  0  0  0  0
 23 53  1  0  0  0  0
 24 54  1  0  0  0  0
 24 55  1  0  0  0  0
 25 56  1  0  0  0  0
 25 57  1  0  0  0  0
 26 27  1  0  0  0  0
 27 28  2  0  0  0  0
 27 58  1  0  0  0  0
 28 29  1  0  0  0  0
M  END
> <s_m_source_file>
AV-unprocessed.smi

> <i_m_source_file_index>
236

> <i_lp_mmshare_version>
43012

> <i_f3d_flags>
0

> <s_epik_input>
W0NIMl0xW0NIMl1PW0NAQEhdKFtDSDNdKVtDQEBdMShbT0hdKVtDSDJdbihbY0hdbjIpYyhjMjMpbltjSF1uYzNONFtDSDJdW0NIMl1PW0NASF0oW0NIMl00KVtDSDJdT1tDSDJdW0NIXTVbQ0gyXVtDSDJdNQ==

> <s_epik_cmdline>
J2VwaWtfcHl0aG9uJywgJy1waCcsICc3LjAnLCAnLXRuJywgJzgnLCAnLW1hJywgJzIwMCcsICctbWV0YWxfYmluZGluZycsICctaW1hZScsICc8aW5maWxlLm1hZT4nLCAnLW9tYWUnLCAnPG91dGZpbGUubWFlPic=

> <r_lp_tautomer_probability>
1

> <r_epik_Ionization_Penalty>
7.21838e-05

> <r_epik_Ionization_Penalty_Charging>
0

> <r_epik_Ionization_Penalty_Neutral>
7.21838e-05

> <r_epik_State_Penalty>
-0

> <r_epik_Charging_Adjusted_Penalty>
0

> <i_epik_Tot_Q>
0

> <i_epik_Tot_abs_Q>
0

> <r_epik_Metal_State_Penalty>
-0

> <b_epik_Metal_Only>
0

> <s_lp_Force_Field>
OPLS_2005

> <r_lp_Energy>
47.3448

> <b_lp_Chiralities_Consistent>
1

> <s_lp_Variant>
AV-unprocessed.smi:236-6

> <Gold.Version>
5.8.1

> <Gold.Id.Protein>
6NUR|6NUR_protein|mol2

> <Gold.PLP.Fitness>
48.0642

> <Gold.PLP.PLP>
-41.9608

> <Gold.PLP.part.hbond>
-3.4225

> <Gold.PLP.part.metal>
0.0000

> <Gold.PLP.part.buried>
0.8573

> <Gold.PLP.part.nonpolar>
-42.4973

> <Gold.PLP.part.repulsive>
2.8075

> <Gold.PLP.ligand.clash>
0.0000

> <Gold.PLP.ligand.torsion>
1.6995

> <Gold.PLP.Chemscore.Hbond>
2.2848

> <Gold.PLP.Chemscore.CHOScore>
0.5865

> <Gold.PLP.Chemscore.Metal>
0.0000

> <Gold.Chemscore.Hbonds>
donor molecule, donor type, donor heavy atom, donor atom, acceptor molecule, acceptor atom, score
      L1  H     7    38       P1  7957  0.88
      P1  H  7954  7966       L1    11  0.44
      P1  H  8011  8017       L1     7  0.90
      L1  C    10    41       P1  7957  0.60

> <Gold.PLP.Chemscore.Internal.Correction>
0.8887

> <Gold.Rescore>
     Score         DG    S(hbond)    S(metal)    S(lipo)     H(rot)  DE(clash)    DE(int)     intcor
     10.60     -14.99       1.25        0.00     108.29       2.87       2.78       1.61       ----

> <Gold.Chemscore.Fitness>
10.5980

> <Gold.Chemscore.DG>
-14.9916

> <Gold.Chemscore.ZeroCoef>
-5.4800

> <Gold.Chemscore.Hbond>
1.2508

> <Gold.Chemscore.Metal>
0.0000

> <Gold.Chemscore.Lipo>
108.2894

> <Gold.Chemscore.Internal_Hbond>
0.0000

> <Gold.Chemscore.DEClash>
2.7806

> <Gold.Chemscore.DEInternal>
1.6130

> <Gold.Chemscore.Rot>
2.8655

> <Gold.Chemscore.Internal.Correction>
   9.000000E+99

> <Gold.Chemscore.Hbonds>
donor molecule, donor type, donor heavy atom, donor atom, acceptor molecule, acceptor atom, score
      L1  H     7    38       P1  7957  0.85
      P1  H  7954  7966       L1    11  0.01
      P1  H  8011  8017       L1     7  0.17

> <Gold.Chemscore.Hbond.Weighted>
-4.1775

> <Gold.Chemscore.Metal.Weighted>
-0.0000

> <Gold.Chemscore.Lipo.Weighted>
-12.6699

> <Gold.Chemscore.Internal_Hbond.Weighted>
0.0000

> <Gold.Chemscore.DEClash.Weighted>
2.7806

> <Gold.Chemscore.DEInternal.Weighted>
1.6130

> <Gold.Chemscore.Rot.Weighted>
7.3358

> <Gold.Chemscore.Internal.Correction.Weighted>
   9.000000E+99

> <Gold.Protein.RotatedTorsions>
[ 6907 6896 6895 6894 ] final   57.88 input  -60.11 | X-H torsion
[ 7974 7965 7964 7962 ] final  -80.05 input  175.53 | X-H torsion
[ 8008 7997 7996 7995 ] final  175.59 input   59.86 | X-H torsion
[ 10167 10162 10161 10158 ] final   20.00 input  -65.29 | X-H torsion
[ 10718 10713 10712 10709 ] final  -50.67 input   66.30 | X-H torsion
[ 10763 10752 10751 10750 ] final  126.21 input  -60.55 | X-H torsion
[ 11005 11000 10999 10996 ] final -126.52 input  -57.11 | X-H torsion

> <Gold.Protein.ActiveResidues>
 VAL166  LYS551  ARG553  GLY616  TRP617  ASP618  TYR619  PRO620  LYS621  CYS622 
 ASP623  PHE694  ASN695  SER759  ASP760  ASP761  ALA762  ILE779  LEU786  VAL792 
 PHE793  MET794  SER795  GLU796  ALA797  LYS798  CYS799  TRP800  GLU811  SER814 

> <Gold.Protein.RotatedAtoms>
  152.3772  134.6645  160.0155 H   0  0  0  0  0  0  0  0  0  0  0  0  # atno 6907 bound_to 6896
  151.6919  133.3305  159.3253 H   0  0  0  0  0  0  0  0  0  0  0  0  # atno 6908 bound_to 6896
  150.7719  134.6626  159.6393 H   0  0  0  0  0  0  0  0  0  0  0  0  # atno 6909 bound_to 6896
  145.5651  140.9475  143.1426 H   0  0  0  0  0  0  0  0  0  0  0  0  # atno 7974 bound_to 7965
  156.0854  140.1405  156.9659 H   0  0  0  0  0  0  0  0  0  0  0  0  # atno 8008 bound_to 7997
  154.4610  140.0943  156.6940 H   0  0  0  0  0  0  0  0  0  0  0  0  # atno 8009 bound_to 7997
  155.5007  140.3451  155.4373 H   0  0  0  0  0  0  0  0  0  0  0  0  # atno 8010 bound_to 7997
  140.5537  143.9464  150.6595 H   0  0  0  0  0  0  0  0  0  0  0  0  # atno 10167 bound_to 10162
  156.1780  130.4150  149.9549 H   0  0  0  0  0  0  0  0  0  0  0  0  # atno 10718 bound_to 10713
  153.6898  135.3301  155.3199 H   0  0  0  0  0  0  0  0  0  0  0  0  # atno 10763 bound_to 10752
  154.8443  135.4429  154.1520 H   0  0  0  0  0  0  0  0  0  0  0  0  # atno 10764 bound_to 10752
  153.2559  135.6986  153.7707 H   0  0  0  0  0  0  0  0  0  0  0  0  # atno 10765 bound_to 10752
  140.9674  134.0852  157.3905 H   0  0  0  0  0  0  0  0  0  0  0  0  # atno 11005 bound_to 11000
  144.7464  139.7309  143.7290 LP  0  0  0  0  0  0  0  0  0  0  0  0  # atno 17320 bound_to 7965
  146.1824  139.5022  142.9858 LP  0  0  0  0  0  0  0  0  0  0  0  0  # atno 17321 bound_to 7965
  140.2896  143.3333  152.1075 LP  0  0  0  0  0  0  0  0  0  0  0  0  # atno 17342 bound_to 10162
  139.5038  144.6763  151.6120 LP  0  0  0  0  0  0  0  0  0  0  0  0  # atno 17343 bound_to 10162
  156.7328  130.9050  151.3627 LP  0  0  0  0  0  0  0  0  0  0  0  0  # atno 17370 bound_to 10713
  157.6849  130.9175  150.0360 LP  0  0  0  0  0  0  0  0  0  0  0  0  # atno 17371 bound_to 10713
  139.8900  135.0109  156.6709 LP  0  0  0  0  0  0  0  0  0  0  0  0  # atno 17394 bound_to 11000
  140.7379  133.9003  155.8257 LP  0  0  0  0  0  0  0  0  0  0  0  0  # atno 17395 bound_to 11000

$$$$
