#       Name:                AV-unprocessed.smi:2775
#       Creating user name   scv26
#       Creation time:       Fri Mar 27 15:13:47 2020


#       File generated by GOLD software.
#

@<TRIPOS>MOLECULE
AV-unprocessed.smi:2775
    47    50     1
SMALL
NO_CHARGES


@<TRIPOS>ATOM
      1 ****        -5.3051   2.0151  -0.0743 C.3            1 S1                 0.0000
      2 ****        -4.5049   0.8463   0.4678 C.ar           1 S1                 0.0000
      3 ****        -5.1889  -0.2071   0.9658 N.pl3          1 S1                 1.0000
      4 ****        -4.5856  -1.3043   1.4676 C.ar           1 S1                 0.0000
      5 ****        -3.1796  -1.3844   1.4931 C.ar           1 S1                 0.0000
      6 ****        -2.4110  -0.3007   0.9969 C.ar           1 S1                 0.0000
      7 ****        -0.9888  -0.2934   0.9665 N.am           1 S1                 0.0000
      8 ****        -0.1096  -1.0537   1.6470 C.2            1 S1                 0.0000
      9 ****        -0.4124  -1.9148   2.4694 O.2            1 S1                 0.0000
     10 ****         1.1755  -0.7802   1.3634 N.am           1 S1                 0.0000
     11 ****         2.3641  -1.4212   1.9263 C.3            1 S1                 0.0000
     12 ****         3.6633  -0.8582   1.3472 C.3            1 S1                 0.0000
     13 ****         4.7045  -1.3937   0.4320 C.3            1 S1                 0.0000
     14 ****         5.9463  -0.9078   1.2221 C.3            1 S1                 0.0000
     15 ****         5.4416  -0.4199   2.4891 O.3            1 S1                 0.0000
     16 ****         4.2631  -1.1708   2.7095 C.3            1 S1                 0.0000
     17 ****         2.8854  -0.7688   3.2520 C.3            1 S1                 0.0000
     18 ****         2.3996  -1.2417   4.6272 C.3            1 S1                 0.0000
     19 ****         1.6645   0.0944   4.7818 C.3            1 S1                 0.0000
     20 ****         2.5641   0.6738   3.6850 C.3            1 S1                 0.0000
     21 ****        -3.0902   0.8243   0.4663 C.ar           1 S1                 0.0000
     22 ****        -2.2017   2.1652  -0.1767 Cl             1 S1                 0.0000
     23 ****        -5.0559   2.9289   0.4658 H              1 S1                 0.0000
     24 ****        -6.3777   1.8451   0.0254 H              1 S1                 0.0000
     25 ****        -5.0839   2.1682  -1.1307 H              1 S1                 0.0000
     26 ****        -5.2416  -2.0835   1.8272 H              1 S1                 0.0000
     27 ****        -2.7242  -2.2815   1.8821 H              1 S1                 0.0000
     28 ****        -0.5794   0.4184   0.3788 H              1 S1                 0.0000
     29 ****         1.3467  -0.0472   0.6900 H              1 S1                 0.0000
     30 ****         2.3388  -2.5145   1.9383 H              1 S1                 0.0000
     31 ****         3.5566   0.2210   1.1851 H              1 S1                 0.0000
     32 ****         4.6651  -2.4815   0.3609 H              1 S1                 0.0000
     33 ****         4.6500  -0.9663  -0.5696 H              1 S1                 0.0000
     34 ****         6.6484  -1.7268   1.3824 H              1 S1                 0.0000
     35 ****         6.4730  -0.1058   0.7042 H              1 S1                 0.0000
     36 ****         4.4818  -2.2324   2.8664 H              1 S1                 0.0000
     37 ****         1.7519  -2.1181   4.6101 H              1 S1                 0.0000
     38 ****         3.2148  -1.3575   5.3429 H              1 S1                 0.0000
     39 ****         0.6172   0.0383   4.4826 H              1 S1                 0.0000
     40 ****         1.7795   0.5649   5.7587 H              1 S1                 0.0000
     41 ****         3.4354   1.1919   4.0884 H              1 S1                 0.0000
     42 ****         2.0437   1.2836   2.9463 H              1 S1                 0.0000
     43 ****        -6.2087  -0.1734   0.9574 H              1 S1                 0.0000
     44 ****        -1.3746  -2.0931   2.6755 LP             1 S1                 0.0000
     45 ****         0.3033  -2.4374   2.9327 LP             1 S1                 0.0000
     46 ****         5.2342   0.5569   2.4351 LP             1 S1                 0.0000
     47 ****         6.1053  -0.5798   3.2198 LP             1 S1                 0.0000
@<TRIPOS>BOND
    1    1    2 1     
    2    1   23 1     
    3    1   24 1     
    4    1   25 1     
    5    2   21 ar    
    6    2    3 ar    
    7    3    4 ar    
    8    3   43 1     
    9    4    5 ar    
   10    4   26 1     
   11    5    6 ar    
   12    5   27 1     
   13    6    7 1     
   14    6   21 ar    
   15    7    8 am    
   16    7   28 1     
   17    8    9 2     
   18    8   10 am    
   19   10   11 1     
   20   10   29 1     
   21   11   17 1     
   22   11   12 1     
   23   11   30 1     
   24   12   16 1     
   25   12   13 1     
   26   12   31 1     
   27   13   14 1     
   28   13   32 1     
   29   13   33 1     
   30   14   15 1     
   31   14   34 1     
   32   14   35 1     
   33   15   16 1     
   34   16   17 1     
   35   16   36 1     
   36   17   20 1     
   37   17   18 1     
   38   18   19 1     
   39   18   37 1     
   40   18   38 1     
   41   19   20 1     
   42   19   39 1     
   43   19   40 1     
   44   20   41 1     
   45   20   42 1     
   46   21   22 1     
   47    9   44 1     
   48    9   45 1     
   49   15   46 1     
   50   15   47 1     
@<TRIPOS>SUBSTRUCTURE
      1 S1             1
@<TRIPOS>SET
LONE_PAIRS      STATIC     ATOMS    <user>   **** ""
4 44 45 46 47
DONOR_HYDROGENS      STATIC     ATOMS    <user>   **** ""
3 43 28 29
ATOM$BLUE        STATIC     ATOMS    COLORGROUP SYSTEM
4 44 45 46 47
ATOM$RED        STATIC     ATOMS    COLORGROUP SYSTEM
3 43 28 29
