AV-unprocessed.smi:2018|AV-procd|sdf|8170|dock1
  -GOLD-   2272010413D 1   1.00000     0.00000
 Structure written by MMmdl.
 34 35  0  0  0  0  0  0  0  0  2 V2000
  153.9544  141.3991  161.6764 C   0  0  0  0  0  0  0  0  0  0  0  0
  153.0518  142.4030  161.0456 C   0  0  0  0  0  0  0  0  0  0  0  0
  152.5973  142.3011  159.7954 N   0  0  0  0  0  0  0  0  0  0  0  0
  151.7414  143.3526  159.4383 C   0  0  0  0  0  0  0  0  0  0  0  0
  151.1096  143.3894  158.0674 C   0  0  0  0  0  0  0  0  0  0  0  0
  151.5779  142.2734  157.1049 C   0  0  0  0  0  0  0  0  0  0  0  0
  150.4387  141.4604  156.6787 N   0  5  0  0  0  0  0  0  0  0  0  0
  150.5123  140.3300  155.9162 C   0  0  0  0  0  0  0  0  0  0  0  0
  150.6991  140.2830  154.6942 O   0  0  0  0  0  0  0  0  0  0  0  0
  150.3405  139.0081  156.5879 C   0  0  0  0  0  0  0  0  0  0  0  0
  150.3505  137.9238  155.8768 N   0  0  0  0  0  0  0  0  0  0  0  0
  150.2368  136.6693  156.4371 N   0  0  0  0  0  0  0  0  0  0  0  0
  150.5667  135.5862  155.5111 C   0  0  0  0  0  0  0  0  0  0  0  0
  149.8434  136.4331  157.7148 C   0  0  0  0  0  0  0  0  0  0  0  0
  149.7634  135.3122  158.2177 O   0  0  0  0  0  0  0  0  0  0  0  0
  149.4552  137.6597  158.5455 C   0  0  0  0  0  0  0  0  0  0  0  0
  150.2030  138.9307  158.0970 C   0  0  0  0  0  0  0  0  0  0  0  0
  151.5878  144.2783  160.4430 C   0  0  0  0  0  0  0  0  0  0  0  0
  152.4779  143.8427  161.8765 S   0  0  0  0  0  0  0  0  0  0  0  0
  154.1470  140.5720  160.9921 H   0  0  0  0  0  0  0  0  0  0  0  0
  153.4941  141.0022  162.5812 H   0  0  0  0  0  0  0  0  0  0  0  0
  154.9041  141.8652  161.9391 H   0  0  0  0  0  0  0  0  0  0  0  0
  150.0265  143.3190  158.1713 H   0  0  0  0  0  0  0  0  0  0  0  0
  151.2888  144.3604  157.6034 H   0  0  0  0  0  0  0  0  0  0  0  0
  152.0970  142.7321  156.2619 H   0  0  0  0  0  0  0  0  0  0  0  0
  152.3245  141.6636  157.6148 H   0  0  0  0  0  0  0  0  0  0  0  0
  150.4345  134.5890  155.9324 H   0  0  0  0  0  0  0  0  0  0  0  0
  151.6063  135.6728  155.1924 H   0  0  0  0  0  0  0  0  0  0  0  0
  149.9390  135.6499  154.6216 H   0  0  0  0  0  0  0  0  0  0  0  0
  148.3808  137.8064  158.4289 H   0  0  0  0  0  0  0  0  0  0  0  0
  149.6334  137.4686  159.6043 H   0  0  0  0  0  0  0  0  0  0  0  0
  151.1945  138.9602  158.5497 H   0  0  0  0  0  0  0  0  0  0  0  0
  149.6622  139.7966  158.4804 H   0  0  0  0  0  0  0  0  0  0  0  0
  150.9942  145.1803  160.4292 H   0  0  0  0  0  0  0  0  0  0  0  0
  1  2  1  0  0  0  0
  1 20  1  0  0  0  0
  1 21  1  0  0  0  0
  1 22  1  0  0  0  0
  2 19  1  0  0  0  0
  2  3  2  0  0  0  0
  3  4  1  0  0  0  0
  4  5  1  0  0  0  0
  4 18  2  0  0  0  0
  5  6  1  0  0  0  0
  5 23  1  0  0  0  0
  5 24  1  0  0  0  0
  6  7  1  0  0  0  0
  6 25  1  0  0  0  0
  6 26  1  0  0  0  0
  7  8  1  0  0  0  0
  8  9  2  0  0  0  0
  8 10  1  0  0  0  0
 10 17  1  0  0  0  0
 10 11  2  0  0  0  0
 11 12  1  0  0  0  0
 12 13  1  0  0  0  0
 12 14  1  0  0  0  0
 13 27  1  0  0  0  0
 13 28  1  0  0  0  0
 13 29  1  0  0  0  0
 14 15  2  0  0  0  0
 14 16  1  0  0  0  0
 16 17  1  0  0  0  0
 16 30  1  0  0  0  0
 16 31  1  0  0  0  0
 17 32  1  0  0  0  0
 17 33  1  0  0  0  0
 18 19  1  0  0  0  0
 18 34  1  0  0  0  0
M  CHG  1   7  -1
M  END
> <s_m_source_file>
AV-unprocessed.smi

> <i_m_source_file_index>
2018

> <i_lp_mmshare_version>
43012

> <i_f3d_flags>
0

> <s_epik_input>
W0NIM11jMW5jKFtjSF1zMSlbQ0gyXVtDSDJdW05IXUMoPU8pQzI9Tk4oW0NIM10pQyg9TylbQ0gyXVtDSDJdMg==

> <s_epik_cmdline>
J2VwaWtfcHl0aG9uJywgJy1waCcsICc3LjAnLCAnLXRuJywgJzgnLCAnLW1hJywgJzIwMCcsICctbWV0YWxfYmluZGluZycsICctaW1hZScsICc8aW5maWxlLm1hZT4nLCAnLW9tYWUnLCAnPG91dGZpbGUubWFlPic=

> <r_epik_Ionization_Penalty>
5.30398

> <r_epik_Ionization_Penalty_Charging>
5.30014

> <r_epik_Ionization_Penalty_Neutral>
0.0038335

> <r_epik_State_Penalty>
5.30046

> <r_epik_Charging_Adjusted_Penalty>
10.6006

> <i_epik_Tot_Q>
-1

> <i_epik_Tot_abs_Q>
1

> <r_epik_Metal_State_Penalty>
1.34504

> <b_epik_Metal_Only>
1

> <s_epik_Chemistry_Notes>
This compound has an imine and may undergo hydrolysis.

> <s_lp_Force_Field>
OPLS_2005

> <r_lp_Energy>
22.7314

> <b_lp_Chiralities_Consistent>
1

> <s_lp_Variant>
AV-unprocessed.smi:2018-2

> <Gold.Version>
5.8.1

> <Gold.Id.Protein>
6NUR|6NUR_protein|mol2

> <Gold.PLP.Fitness>
36.3005

> <Gold.PLP.PLP>
-32.5410

> <Gold.PLP.part.hbond>
-2.0000

> <Gold.PLP.part.metal>
0.0000

> <Gold.PLP.part.buried>
-6.3293

> <Gold.PLP.part.nonpolar>
-23.6579

> <Gold.PLP.part.repulsive>
0.1738

> <Gold.PLP.ligand.clash>
0.0000

> <Gold.PLP.ligand.torsion>
1.1316

> <Gold.PLP.Chemscore.Hbond>
2.0000

> <Gold.PLP.Chemscore.CHOScore>
0.0000

> <Gold.PLP.Chemscore.Metal>
0.0000

> <Gold.Chemscore.Hbonds>
donor molecule, donor type, donor heavy atom, donor atom, acceptor molecule, acceptor atom, score
      P1  H  6896  6908       L1    15  1.00
      P1  H  7989  7998       L1     9  1.00

> <Gold.PLP.Chemscore.Internal.Correction>
0.0227

> <Gold.Rescore>
     Score         DG    S(hbond)    S(metal)    S(lipo)     H(rot)  DE(clash)    DE(int)     intcor
     17.51     -18.76       1.98        0.00      88.01       1.42       0.13       1.13       ----

> <Gold.Chemscore.Fitness>
17.5060

> <Gold.Chemscore.DG>
-18.7637

> <Gold.Chemscore.ZeroCoef>
-5.4800

> <Gold.Chemscore.Hbond>
1.9810

> <Gold.Chemscore.Metal>
0.0000

> <Gold.Chemscore.Lipo>
88.0066

> <Gold.Chemscore.Internal_Hbond>
0.0000

> <Gold.Chemscore.DEClash>
0.1252

> <Gold.Chemscore.DEInternal>
1.1325

> <Gold.Chemscore.Rot>
1.4178

> <Gold.Chemscore.Internal.Correction>
   9.000000E+99

> <Gold.Chemscore.Hbonds>
donor molecule, donor type, donor heavy atom, donor atom, acceptor molecule, acceptor atom, score
      P1  H  6896  6908       L1    15  0.98
      P1  H  7989  7998       L1     9  0.99

> <Gold.Chemscore.Hbond.Weighted>
-6.6164

> <Gold.Chemscore.Metal.Weighted>
-0.0000

> <Gold.Chemscore.Lipo.Weighted>
-10.2968

> <Gold.Chemscore.Internal_Hbond.Weighted>
0.0000

> <Gold.Chemscore.DEClash.Weighted>
0.1252

> <Gold.Chemscore.DEInternal.Weighted>
1.1325

> <Gold.Chemscore.Rot.Weighted>
3.6295

> <Gold.Chemscore.Internal.Correction.Weighted>
   9.000000E+99

> <Gold.Protein.RotatedTorsions>
[ 6907 6896 6895 6894 ] final  162.64 input  -60.11 | X-H torsion
[ 7974 7965 7964 7962 ] final -136.87 input  175.53 | X-H torsion
[ 8008 7997 7996 7995 ] final   24.58 input   59.86 | X-H torsion
[ 10167 10162 10161 10158 ] final  -75.05 input  -65.29 | X-H torsion
[ 10718 10713 10712 10709 ] final  135.21 input   66.30 | X-H torsion
[ 10763 10752 10751 10750 ] final  157.77 input  -60.55 | X-H torsion
[ 11005 11000 10999 10996 ] final   72.67 input  -57.11 | X-H torsion

> <Gold.Protein.ActiveResidues>
 VAL166  LYS551  ARG553  GLY616  TRP617  ASP618  TYR619  PRO620  LYS621  CYS622 
 ASP623  PHE694  ASN695  SER759  ASP760  ASP761  ALA762  ILE779  LEU786  VAL792 
 PHE793  MET794  SER795  GLU796  ALA797  LYS798  CYS799  TRP800  GLU811  SER814 

> <Gold.Protein.RotatedAtoms>
  151.9374  133.3628  159.3952 H   0  0  0  0  0  0  0  0  0  0  0  0  # atno 6907 bound_to 6896
  150.7005  134.4474  159.5330 H   0  0  0  0  0  0  0  0  0  0  0  0  # atno 6908 bound_to 6896
  152.2125  134.8488  160.0546 H   0  0  0  0  0  0  0  0  0  0  0  0  # atno 6909 bound_to 6896
  144.8890  140.6615  143.5157 H   0  0  0  0  0  0  0  0  0  0  0  0  # atno 7974 bound_to 7965
  154.9985  140.3122  155.4877 H   0  0  0  0  0  0  0  0  0  0  0  0  # atno 8008 bound_to 7997
  156.2929  140.2236  156.5034 H   0  0  0  0  0  0  0  0  0  0  0  0  # atno 8009 bound_to 7997
  154.7640  140.0457  157.0985 H   0  0  0  0  0  0  0  0  0  0  0  0  # atno 8010 bound_to 7997
  140.4975  143.2367  151.7806 H   0  0  0  0  0  0  0  0  0  0  0  0  # atno 10167 bound_to 10162
  157.4594  131.1072  150.9938 H   0  0  0  0  0  0  0  0  0  0  0  0  # atno 10718 bound_to 10713
  154.2054  135.2788  155.2976 H   0  0  0  0  0  0  0  0  0  0  0  0  # atno 10763 bound_to 10752
  154.5821  135.5586  153.7198 H   0  0  0  0  0  0  0  0  0  0  0  0  # atno 10764 bound_to 10752
  153.0077  135.6347  154.2193 H   0  0  0  0  0  0  0  0  0  0  0  0  # atno 10765 bound_to 10752
  139.9479  134.7280  156.0934 H   0  0  0  0  0  0  0  0  0  0  0  0  # atno 11005 bound_to 11000
  145.3817  139.1635  143.4277 LP  0  0  0  0  0  0  0  0  0  0  0  0  # atno 17320 bound_to 7965
  146.3042  140.3898  142.8693 LP  0  0  0  0  0  0  0  0  0  0  0  0  # atno 17321 bound_to 7965
  139.4864  144.4567  151.9590 LP  0  0  0  0  0  0  0  0  0  0  0  0  # atno 17342 bound_to 10162
  140.3655  144.2920  150.5927 LP  0  0  0  0  0  0  0  0  0  0  0  0  # atno 17343 bound_to 10162
  157.0741  130.5876  149.5408 LP  0  0  0  0  0  0  0  0  0  0  0  0  # atno 17370 bound_to 10713
  156.0022  130.5103  150.7703 LP  0  0  0  0  0  0  0  0  0  0  0  0  # atno 17371 bound_to 10713
  141.1134  133.6635  156.3034 LP  0  0  0  0  0  0  0  0  0  0  0  0  # atno 17394 bound_to 11000
  140.5790  134.5764  157.5475 LP  0  0  0  0  0  0  0  0  0  0  0  0  # atno 17395 bound_to 11000

$$$$
