AV-unprocessed.smi:965|AV-procd|sdf|4282|dock5
  -GOLD-   22720 2193D 1   1.00000     0.00000
 Structure written by MMmdl.
 29 30  0  0  0  0  0  0  0  0  2 V2000
  153.0589  142.2126  160.7806 C   0  0  0  0  0  0  0  0  0  0  0  0
  153.4145  140.9561  159.9793 C   0  0  0  0  0  0  0  0  0  0  0  0
  152.6144  140.8314  158.7260 C   0  0  0  0  0  0  0  0  0  0  0  0
  151.6500  141.6454  158.3038 N   0  0  0  0  0  0  0  0  0  0  0  0
  151.2502  141.0113  157.1660 C   0  0  0  0  0  0  0  0  0  0  0  0
  150.1589  141.5327  156.2822 C   0  0  1  0  0  0  0  0  0  0  0  0
  149.9471  140.6496  155.0378 C   0  0  0  0  0  0  0  0  0  0  0  0
  148.8136  141.2134  154.1670 C   0  0  0  0  0  0  0  0  0  0  0  0
  147.5301  141.4064  154.9920 C   0  0  0  0  0  0  0  0  0  0  0  0
  147.7851  142.2758  156.1615 N   0  3  0  0  0  0  0  0  0  0  0  0
  148.8419  141.7506  157.0544 C   0  0  0  0  0  0  0  0  0  0  0  0
  151.8890  139.8836  156.8781 N   0  0  0  0  0  0  0  0  0  0  0  0
  152.8021  139.7489  157.9337 O   0  0  0  0  0  0  0  0  0  0  0  0
  153.6558  142.2756  161.6905 H   0  0  0  0  0  0  0  0  0  0  0  0
  152.0078  142.2092  161.0710 H   0  0  0  0  0  0  0  0  0  0  0  0
  153.2432  143.1156  160.1977 H   0  0  0  0  0  0  0  0  0  0  0  0
  154.4737  140.9675  159.7203 H   0  0  0  0  0  0  0  0  0  0  0  0
  153.2505  140.0673  160.5894 H   0  0  0  0  0  0  0  0  0  0  0  0
  150.4788  142.5126  155.9216 H   0  0  0  0  0  0  0  0  0  0  0  0
  150.8680  140.5857  154.4567 H   0  0  0  0  0  0  0  0  0  0  0  0
  149.6976  139.6317  155.3409 H   0  0  0  0  0  0  0  0  0  0  0  0
  149.1210  142.1682  153.7380 H   0  0  0  0  0  0  0  0  0  0  0  0
  148.6209  140.5452  153.3273 H   0  0  0  0  0  0  0  0  0  0  0  0
  146.7495  141.8560  154.3776 H   0  0  0  0  0  0  0  0  0  0  0  0
  147.1505  140.4432  155.3358 H   0  0  0  0  0  0  0  0  0  0  0  0
  148.0683  143.1862  155.8282 H   0  0  0  0  0  0  0  0  0  0  0  0
  148.4966  140.8147  157.4962 H   0  0  0  0  0  0  0  0  0  0  0  0
  148.9925  142.4541  157.8738 H   0  0  0  0  0  0  0  0  0  0  0  0
  146.9298  142.3745  156.6899 H   0  0  0  0  0  0  0  0  0  0  0  0
  1  2  1  0  0  0  0
  1 14  1  0  0  0  0
  1 15  1  0  0  0  0
  1 16  1  0  0  0  0
  2  3  1  0  0  0  0
  2 17  1  0  0  0  0
  2 18  1  0  0  0  0
  3 13  1  0  0  0  0
  3  4  2  0  0  0  0
  4  5  1  0  0  0  0
  5  6  1  0  0  0  0
  5 12  2  0  0  0  0
  6 11  1  0  0  0  0
  6  7  1  0  0  0  0
  6 19  1  0  0  0  0
  7  8  1  0  0  0  0
  7 20  1  0  0  0  0
  7 21  1  0  0  0  0
  8  9  1  0  0  0  0
  8 22  1  0  0  0  0
  8 23  1  0  0  0  0
  9 10  1  0  0  0  0
  9 24  1  0  0  0  0
  9 25  1  0  0  0  0
 10 11  1  0  0  0  0
 10 26  1  0  0  0  0
 10 29  1  0  0  0  0
 11 27  1  0  0  0  0
 11 28  1  0  0  0  0
 12 13  1  0  0  0  0
M  CHG  1  10   1
M  END
> <s_m_source_file>
AV-unprocessed.smi

> <i_m_source_file_index>
965

> <i_lp_mmshare_version>
43012

> <i_f3d_flags>
0

> <s_epik_input>
W0NIM11bQ0gyXWMxbmMobm8xKVtDQEBIXTJbQ0gyXVtDSDJdW0NIMl1bTkhdW0NIMl0y

> <s_epik_cmdline>
J2VwaWtfcHl0aG9uJywgJy1waCcsICc3LjAnLCAnLXRuJywgJzgnLCAnLW1hJywgJzIwMCcsICctbWV0YWxfYmluZGluZycsICctaW1hZScsICc8aW5maWxlLm1hZT4nLCAnLW9tYWUnLCAnPG91dGZpbGUubWFlPic=

> <r_lp_tautomer_probability>
1

> <r_epik_Ionization_Penalty>
0.000532935

> <r_epik_Ionization_Penalty_Charging>
0.000532935

> <r_epik_Ionization_Penalty_Neutral>
3.47051e-13

> <r_epik_State_Penalty>
0.000332992

> <r_epik_Charging_Adjusted_Penalty>
0.000865928

> <i_epik_Tot_Q>
1

> <i_epik_Tot_abs_Q>
1

> <r_epik_Metal_State_Penalty>
-0

> <b_epik_Metal_Only>
0

> <s_lp_Force_Field>
OPLS_2005

> <r_lp_Energy>
5.49554

> <b_lp_Chiralities_Consistent>
1

> <s_lp_Variant>
AV-unprocessed.smi:965-2

> <Gold.Version>
5.8.1

> <Gold.Id.Protein>
6NUR|6NUR_protein|mol2

> <Gold.PLP.Fitness>
33.5587

> <Gold.PLP.PLP>
-24.5634

> <Gold.PLP.part.hbond>
-2.0000

> <Gold.PLP.part.metal>
0.0000

> <Gold.PLP.part.buried>
-1.5067

> <Gold.PLP.part.nonpolar>
-20.6843

> <Gold.PLP.part.repulsive>
0.0355

> <Gold.PLP.ligand.clash>
0.0000

> <Gold.PLP.ligand.torsion>
0.0276

> <Gold.PLP.Chemscore.Hbond>
3.0000

> <Gold.PLP.Chemscore.CHOScore>
0.0000

> <Gold.PLP.Chemscore.Metal>
0.0000

> <Gold.Chemscore.Hbonds>
donor molecule, donor type, donor heavy atom, donor atom, acceptor molecule, acceptor atom, score
      L1  H    10    26       P1  8028  2.00
      P1  H  7997  8009       L1    13  0.90

> <Gold.PLP.Chemscore.Internal.Correction>
0.0506

> <Gold.Rescore>
     Score         DG    S(hbond)    S(metal)    S(lipo)     H(rot)  DE(clash)    DE(int)     intcor
     11.59     -11.66       0.98        0.00      51.98       1.24       0.03       0.04       ----

> <Gold.Chemscore.Fitness>
11.5897

> <Gold.Chemscore.DG>
-11.6609

> <Gold.Chemscore.ZeroCoef>
-5.4800

> <Gold.Chemscore.Hbond>
0.9794

> <Gold.Chemscore.Metal>
0.0000

> <Gold.Chemscore.Lipo>
51.9828

> <Gold.Chemscore.Internal_Hbond>
0.0000

> <Gold.Chemscore.DEClash>
0.0263

> <Gold.Chemscore.DEInternal>
0.0449

> <Gold.Chemscore.Rot>
1.2392

> <Gold.Chemscore.Internal.Correction>
   9.000000E+99

> <Gold.Chemscore.Hbonds>
donor molecule, donor type, donor heavy atom, donor atom, acceptor molecule, acceptor atom, score
      L1  H    10    26       P1  8028  0.65
      P1  H  7997  8009       L1    13  0.10

> <Gold.Chemscore.Hbond.Weighted>
-3.2712

> <Gold.Chemscore.Metal.Weighted>
-0.0000

> <Gold.Chemscore.Lipo.Weighted>
-6.0820

> <Gold.Chemscore.Internal_Hbond.Weighted>
0.0000

> <Gold.Chemscore.DEClash.Weighted>
0.0263

> <Gold.Chemscore.DEInternal.Weighted>
0.0449

> <Gold.Chemscore.Rot.Weighted>
3.1723

> <Gold.Chemscore.Internal.Correction.Weighted>
   9.000000E+99

> <Gold.Protein.RotatedTorsions>
[ 6907 6896 6895 6894 ] final   44.66 input  -60.11 | X-H torsion
[ 7974 7965 7964 7962 ] final -101.38 input  175.53 | X-H torsion
[ 8008 7997 7996 7995 ] final  165.01 input   59.86 | X-H torsion
[ 10167 10162 10161 10158 ] final -138.56 input  -65.29 | X-H torsion
[ 10718 10713 10712 10709 ] final -161.08 input   66.30 | X-H torsion
[ 10763 10752 10751 10750 ] final   68.04 input  -60.55 | X-H torsion
[ 11005 11000 10999 10996 ] final  -73.22 input  -57.11 | X-H torsion

> <Gold.Protein.ActiveResidues>
 VAL166  LYS551  ARG553  GLY616  TRP617  ASP618  TYR619  PRO620  LYS621  CYS622 
 ASP623  PHE694  ASN695  SER759  ASP760  ASP761  ALA762  ILE779  LEU786  VAL792 
 PHE793  MET794  SER795  GLU796  ALA797  LYS798  CYS799  TRP800  GLU811  SER814 

> <Gold.Protein.RotatedAtoms>
  152.2352  134.8282  160.0467 H   0  0  0  0  0  0  0  0  0  0  0  0  # atno 6907 bound_to 6896
  151.9017  133.3534  159.3841 H   0  0  0  0  0  0  0  0  0  0  0  0  # atno 6908 bound_to 6896
  150.7037  134.4748  159.5486 H   0  0  0  0  0  0  0  0  0  0  0  0  # atno 6909 bound_to 6896
  145.2824  140.9330  143.2924 H   0  0  0  0  0  0  0  0  0  0  0  0  # atno 7974 bound_to 7965
  156.1834  140.1681  156.8230 H   0  0  0  0  0  0  0  0  0  0  0  0  # atno 8008 bound_to 7997
  154.5386  140.0741  156.8504 H   0  0  0  0  0  0  0  0  0  0  0  0  # atno 8009 bound_to 7997
  155.3260  140.3376  155.4242 H   0  0  0  0  0  0  0  0  0  0  0  0  # atno 8010 bound_to 7997
  139.8466  143.7253  152.2660 H   0  0  0  0  0  0  0  0  0  0  0  0  # atno 10167 bound_to 10162
  156.5912  130.8771  151.2890 H   0  0  0  0  0  0  0  0  0  0  0  0  # atno 10718 bound_to 10713
  153.0216  135.5262  154.7073 H   0  0  0  0  0  0  0  0  0  0  0  0  # atno 10763 bound_to 10752
  154.6165  135.2884  155.0376 H   0  0  0  0  0  0  0  0  0  0  0  0  # atno 10764 bound_to 10752
  154.1378  135.6583  153.4988 H   0  0  0  0  0  0  0  0  0  0  0  0  # atno 10765 bound_to 10752
  141.1620  133.6871  156.7179 H   0  0  0  0  0  0  0  0  0  0  0  0  # atno 11005 bound_to 11000
  144.9242  139.4375  143.6526 LP  0  0  0  0  0  0  0  0  0  0  0  0  # atno 17320 bound_to 7965
  146.3212  139.8119  142.8944 LP  0  0  0  0  0  0  0  0  0  0  0  0  # atno 17321 bound_to 7965
  139.7506  144.7535  151.0512 LP  0  0  0  0  0  0  0  0  0  0  0  0  # atno 17342 bound_to 10162
  140.7792  143.4864  150.9950 LP  0  0  0  0  0  0  0  0  0  0  0  0  # atno 17343 bound_to 10162
  157.7303  130.9684  150.1827 LP  0  0  0  0  0  0  0  0  0  0  0  0  # atno 17370 bound_to 10713
  156.2548  130.3704  149.8193 LP  0  0  0  0  0  0  0  0  0  0  0  0  # atno 17371 bound_to 10713
  140.2838  134.8295  157.3957 LP  0  0  0  0  0  0  0  0  0  0  0  0  # atno 17394 bound_to 11000
  140.1409  134.4973  155.8032 LP  0  0  0  0  0  0  0  0  0  0  0  0  # atno 17395 bound_to 11000

$$$$
