#       Name:                AV-unprocessed.smi:22
#       Creating user name   scv26
#       Creation time:       Thu Mar 26 15:42:43 2020


#       File generated by GOLD software.
#

@<TRIPOS>MOLECULE
AV-unprocessed.smi:22
    66    69     1
SMALL
NO_CHARGES


@<TRIPOS>ATOM
      1 ****        -5.1077  -2.8177  -2.4426 C.3            1 S1                 0.0000
      2 ****        -4.5416  -2.1136  -1.2619 N.4            1 S1                 1.0000
      3 ****        -5.1303  -2.6009   0.0217 C.3            1 S1                 0.0000
      4 ****        -6.6659  -2.4930   0.0937 C.3            1 S1                 0.0000
      5 ****        -7.0688  -1.1457  -0.0374 O.3            1 S1                 0.0000
      6 ****        -3.0431  -2.0768  -1.3177 C.3            1 S1                 0.0000
      7 ****        -2.3379  -1.8747   0.0482 C.3            1 S1                 0.0000
      8 ****        -0.8093  -1.8124  -0.1046 C.3            1 S1                 0.0000
      9 ****        -0.4192  -0.7777  -1.0590 N.3            1 S1                 0.0000
     10 ****         0.8928  -0.4295  -1.0103 C.ar           1 S1                 0.0000
     11 ****         1.6883  -0.6304  -2.0954 N.ar           1 S1                 0.0000
     12 ****         2.9831  -0.3032  -2.0548 C.ar           1 S1                 0.0000
     13 ****         3.6769   0.2311  -1.0487 N.ar           1 S1                 0.0000
     14 ****         2.8843   0.4465   0.0397 C.ar           1 S1                 0.0000
     15 ****         1.4963   0.1463   0.1442 C.ar           1 S1                 0.0000
     16 ****         1.0293   0.5094   1.4021 N.2            1 S1                 0.0000
     17 ****         2.0824   0.9850   2.0091 C.2            1 S1                 0.0000
     18 ****         3.2379   0.9941   1.2608 N.pl3          1 S1                 0.0000
     19 ****         4.5494   1.4675   1.6787 C.3            1 S1                 0.0000
     20 ****         4.7975   2.9656   1.3762 C.3            1 S1                 0.0000
     21 ****         4.6874   3.1794  -0.0192 O.3            1 S1                 0.0000
     22 ****         6.1776   3.4347   1.8433 C.3            1 S1                 0.0000
     23 ****         5.8696   4.3364   3.0326 C.3            1 S1                 0.0000
     24 ****         4.6441   4.9384   2.6570 O.3            1 S1                 0.0000
     25 ****         3.8278   3.9128   2.1107 C.3            1 S1                 0.0000
     26 ****        -1.0380  -0.9023  -2.3782 C.3            1 S1                 0.0000
     27 ****        -2.5698  -0.9500  -2.2658 C.3            1 S1                 0.0000
     28 ****        -4.9844  -3.8971  -2.3459 H              1 S1                 0.0000
     29 ****        -4.6280  -2.5138  -3.3714 H              1 S1                 0.0000
     30 ****        -6.1680  -2.6013  -2.5663 H              1 S1                 0.0000
     31 ****        -4.8264  -3.6358   0.1859 H              1 S1                 0.0000
     32 ****        -4.7450  -2.0192   0.8583 H              1 S1                 0.0000
     33 ****        -7.1645  -3.1102  -0.6528 H              1 S1                 0.0000
     34 ****        -7.0090  -2.8542   1.0636 H              1 S1                 0.0000
     35 ****        -8.0079  -1.0998   0.0651 H              1 S1                 0.0000
     36 ****        -2.7013  -3.0362  -1.7111 H              1 S1                 0.0000
     37 ****        -2.6863  -0.9538   0.5182 H              1 S1                 0.0000
     38 ****        -2.5689  -2.6916   0.7320 H              1 S1                 0.0000
     39 ****        -0.3602  -1.6427   0.8733 H              1 S1                 0.0000
     40 ****        -0.4313  -2.7731  -0.4566 H              1 S1                 0.0000
     41 ****         3.5431  -0.4963  -2.9579 H              1 S1                 0.0000
     42 ****         2.0420   1.3472   3.0261 H              1 S1                 0.0000
     43 ****         4.6550   1.2778   2.7477 H              1 S1                 0.0000
     44 ****         5.3055   0.8547   1.1860 H              1 S1                 0.0000
     45 ****         4.8350   4.0963  -0.1944 H              1 S1                 0.0000
     46 ****         6.8490   2.6170   2.1076 H              1 S1                 0.0000
     47 ****         6.6732   4.0253   1.0707 H              1 S1                 0.0000
     48 ****         5.7308   3.7514   3.9434 H              1 S1                 0.0000
     49 ****         6.6474   5.0789   3.2120 H              1 S1                 0.0000
     50 ****         3.0441   4.3213   1.4712 H              1 S1                 0.0000
     51 ****         3.3410   3.4064   2.9447 H              1 S1                 0.0000
     52 ****        -0.7497  -0.0580  -3.0062 H              1 S1                 0.0000
     53 ****        -0.6730  -1.8074  -2.8659 H              1 S1                 0.0000
     54 ****        -2.9839  -1.0686  -3.2660 H              1 S1                 0.0000
     55 ****        -2.9334   0.0114  -1.8995 H              1 S1                 0.0000
     56 ****        -4.8370  -1.1499  -1.3340 H              1 S1                 0.0000
     57 ****        -6.8116  -0.8036  -0.9412 LP             1 S1                 0.0000
     58 ****        -6.6256  -0.5915   0.6672 LP             1 S1                 0.0000
     59 ****        -0.8499   0.0614  -0.7266 LP             1 S1                 0.0000
     60 ****         1.3015  -1.0254  -2.9287 LP             1 S1                 0.0000
     61 ****         4.6527   0.4461  -1.0876 LP             1 S1                 0.0000
     62 ****         0.0993   0.4255   1.7601 LP             1 S1                 0.0000
     63 ****         3.7728   2.9197  -0.3292 LP             1 S1                 0.0000
     64 ****         5.3708   2.6298  -0.4997 LP             1 S1                 0.0000
     65 ****         4.8062   5.6494   1.9727 LP             1 S1                 0.0000
     66 ****         4.1999   5.3412   3.4573 LP             1 S1                 0.0000
@<TRIPOS>BOND
    1    1    2 1     
    2    1   28 1     
    3    1   29 1     
    4    1   30 1     
    5    2    3 1     
    6    2    6 1     
    7    2   56 1     
    8    3    4 1     
    9    3   31 1     
   10    3   32 1     
   11    4    5 1     
   12    4   33 1     
   13    4   34 1     
   14    5   35 1     
   15    6   27 1     
   16    6    7 1     
   17    6   36 1     
   18    7    8 1     
   19    7   37 1     
   20    7   38 1     
   21    8    9 1     
   22    8   39 1     
   23    8   40 1     
   24    9   10 1     
   25    9   26 1     
   26   10   15 ar    
   27   10   11 ar    
   28   11   12 ar    
   29   12   13 ar    
   30   12   41 1     
   31   13   14 ar    
   32   14   18 1     
   33   14   15 ar    
   34   15   16 1     
   35   16   17 2     
   36   17   18 1     
   37   17   42 1     
   38   18   19 1     
   39   19   20 1     
   40   19   43 1     
   41   19   44 1     
   42   20   25 1     
   43   20   21 1     
   44   20   22 1     
   45   21   45 1     
   46   22   23 1     
   47   22   46 1     
   48   22   47 1     
   49   23   24 1     
   50   23   48 1     
   51   23   49 1     
   52   24   25 1     
   53   25   50 1     
   54   25   51 1     
   55   26   27 1     
   56   26   52 1     
   57   26   53 1     
   58   27   54 1     
   59   27   55 1     
   60    5   57 1     
   61    5   58 1     
   62    9   59 1     
   63   11   60 1     
   64   13   61 1     
   65   16   62 1     
   66   21   63 1     
   67   21   64 1     
   68   24   65 1     
   69   24   66 1     
@<TRIPOS>SUBSTRUCTURE
      1 S1             1
@<TRIPOS>SET
LONE_PAIRS      STATIC     ATOMS    <user>   **** ""
10 57 58 59 60 61 62 63 64 65 66
DONOR_HYDROGENS      STATIC     ATOMS    <user>   **** ""
3 56 35 45
ATOM$BLUE        STATIC     ATOMS    COLORGROUP SYSTEM
10 57 58 59 60 61 62 63 64 65 66
ATOM$RED        STATIC     ATOMS    COLORGROUP SYSTEM
3 56 35 45
