#       Name:                AV-unprocessed.smi:2746
#       Creating user name   scv26
#       Creation time:       Fri Mar 27 15:02:33 2020


#       File generated by GOLD software.
#

@<TRIPOS>MOLECULE
AV-unprocessed.smi:2746
    44    45     1
SMALL
NO_CHARGES


@<TRIPOS>ATOM
      1 ****        -4.4158  -1.3794  -2.8897 C.2            1 S1                 0.0000
      2 ****        -5.0653  -0.6860  -1.9387 C.2            1 S1                 0.0000
      3 ****        -4.4405   0.1969  -0.8662 C.3            1 S1                 0.0000
      4 ****        -4.9985   1.6246  -0.9356 C.3            1 S1                 0.0000
      5 ****        -2.9812   0.2383  -0.9596 N.am           1 S1                 0.0000
      6 ****        -2.1100  -0.2184  -0.0429 C.2            1 S1                 0.0000
      7 ****        -2.4521  -0.7135   1.0319 O.2            1 S1                 0.0000
      8 ****        -0.6536  -0.0608  -0.3921 C.ar           1 S1                 0.0000
      9 ****         0.3294  -0.1711   0.6193 C.ar           1 S1                 0.0000
     10 ****         1.6899  -0.0425   0.2749 C.ar           1 S1                 0.0000
     11 ****         2.6670  -0.1513   1.2740 N.3            1 S1                 0.0000
     12 ****         3.3582   1.1031   1.5421 C.3            1 S1                 0.0000
     13 ****         4.3182   0.9304   2.7325 C.3            1 S1                 0.0000
     14 ****         5.2194  -0.1415   2.4686 O.3            1 S1                 0.0000
     15 ****         4.5382  -1.3791   2.2803 C.3            1 S1                 0.0000
     16 ****         3.5871  -1.2644   1.0762 C.3            1 S1                 0.0000
     17 ****         2.0208   0.1950  -1.0768 C.ar           1 S1                 0.0000
     18 ****         0.9766   0.2877  -2.0158 C.ar           1 S1                 0.0000
     19 ****        -0.3266   0.1612  -1.6894 N.ar           1 S1                 0.0000
     20 ****        -3.3394  -1.3675  -2.9775 H              1 S1                 0.0000
     21 ****        -4.9641  -1.9772  -3.6027 H              1 S1                 0.0000
     22 ****        -6.1435  -0.7480  -1.9122 H              1 S1                 0.0000
     23 ****        -4.7423  -0.2302   0.0912 H              1 S1                 0.0000
     24 ****        -6.0837   1.6280  -0.8277 H              1 S1                 0.0000
     25 ****        -4.7576   2.0993  -1.8875 H              1 S1                 0.0000
     26 ****        -4.5880   2.2466  -0.1394 H              1 S1                 0.0000
     27 ****        -2.5929   0.6355  -1.8032 H              1 S1                 0.0000
     28 ****         0.0498  -0.3535   1.6472 H              1 S1                 0.0000
     29 ****         3.9176   1.4123   0.6581 H              1 S1                 0.0000
     30 ****         2.6322   1.8883   1.7567 H              1 S1                 0.0000
     31 ****         4.8897   1.8450   2.8909 H              1 S1                 0.0000
     32 ****         3.7656   0.7358   3.6532 H              1 S1                 0.0000
     33 ****         5.2717  -2.1667   2.1074 H              1 S1                 0.0000
     34 ****         3.9903  -1.6460   3.1856 H              1 S1                 0.0000
     35 ****         3.0260  -2.1913   0.9511 H              1 S1                 0.0000
     36 ****         4.1664  -1.1106   0.1648 H              1 S1                 0.0000
     37 ****         3.0479   0.3047  -1.3923 H              1 S1                 0.0000
     38 ****         1.1938   0.4674  -3.0582 H              1 S1                 0.0000
     39 ****        -3.4226  -0.7920   1.2599 LP             1 S1                 0.0000
     40 ****        -1.7593  -1.0370   1.6765 LP             1 S1                 0.0000
     41 ****         2.1559  -0.3701   2.1053 LP             1 S1                 0.0000
     42 ****         5.8471  -0.2331   3.2417 LP             1 S1                 0.0000
     43 ****         5.7388   0.0701   1.6408 LP             1 S1                 0.0000
     44 ****        -1.0369   0.2297  -2.3899 LP             1 S1                 0.0000
@<TRIPOS>BOND
    1    1    2 2     
    2    1   20 1     
    3    1   21 1     
    4    2    3 1     
    5    2   22 1     
    6    3    4 1     
    7    3    5 1     
    8    3   23 1     
    9    4   24 1     
   10    4   25 1     
   11    4   26 1     
   12    5    6 am    
   13    5   27 1     
   14    6    7 2     
   15    6    8 1     
   16    8   19 ar    
   17    8    9 ar    
   18    9   10 ar    
   19    9   28 1     
   20   10   11 1     
   21   10   17 ar    
   22   11   16 1     
   23   11   12 1     
   24   12   13 1     
   25   12   29 1     
   26   12   30 1     
   27   13   14 1     
   28   13   31 1     
   29   13   32 1     
   30   14   15 1     
   31   15   16 1     
   32   15   33 1     
   33   15   34 1     
   34   16   35 1     
   35   16   36 1     
   36   17   18 ar    
   37   17   37 1     
   38   18   19 ar    
   39   18   38 1     
   40    7   39 1     
   41    7   40 1     
   42   11   41 1     
   43   14   42 1     
   44   14   43 1     
   45   19   44 1     
@<TRIPOS>SUBSTRUCTURE
      1 S1             1
@<TRIPOS>SET
LONE_PAIRS      STATIC     ATOMS    <user>   **** ""
6 39 40 41 42 43 44
DONOR_HYDROGENS      STATIC     ATOMS    <user>   **** ""
1 27
ATOM$BLUE        STATIC     ATOMS    COLORGROUP SYSTEM
6 39 40 41 42 43 44
ATOM$RED        STATIC     ATOMS    COLORGROUP SYSTEM
1 27
