#       Name:                AV-unprocessed.smi:511
#       Creating user name   scv26
#       Creation time:       Thu Mar 26 23:23:08 2020


#       File generated by GOLD software.
#

@<TRIPOS>MOLECULE
AV-unprocessed.smi:511
    53    55     1
SMALL
NO_CHARGES


@<TRIPOS>ATOM
      1 ****        -2.4610   2.5147   0.1271 C.3            1 S1                 0.0000
      2 ****        -1.8220   1.2518   0.0900 O.3            1 S1                 0.0000
      3 ****        -2.3300   0.4123  -0.9342 C.3            1 S1                 0.0000
      4 ****        -1.5716  -0.9221  -0.9269 C.3            1 S1                 0.0000
      5 ****        -0.1376  -0.7332  -1.1394 N.pl3          1 S1                 0.0000
      6 ****         0.8601  -0.5871  -0.2222 C.2            1 S1                 0.0000
      7 ****         0.6328  -0.6501   1.1532 N.pl3          1 S1                 0.0000
      8 ****         0.0252  -1.7480   1.9021 C.3            1 S1                 0.0000
      9 ****        -1.0685  -1.2249   2.8538 C.3            1 S1                 0.0000
     10 ****        -0.4643  -0.3091   3.8210 N.3            1 S1                 0.0000
     11 ****        -1.4899   0.1973   4.7211 C.3            1 S1                 0.0000
     12 ****         0.1466   0.8038   3.0941 C.3            1 S1                 0.0000
     13 ****         1.2204   0.2646   2.1278 C.3            1 S1                 0.0000
     14 ****         2.0630  -0.3322  -0.7460 N.2            1 S1                 0.0000
     15 ****         1.8207  -0.3474  -2.1097 C.2            1 S1                 0.0000
     16 ****         0.5102  -0.5832  -2.3669 C.2            1 S1                 0.0000
     17 ****        -0.0274  -0.6185  -3.7330 C.2            1 S1                 0.0000
     18 ****        -1.2132  -0.8129  -3.9912 O.2            1 S1                 0.0000
     19 ****         0.9182  -0.4100  -4.6814 N.am           1 S1                 0.0000
     20 ****         2.2519  -0.1711  -4.4896 C.2            1 S1                 0.0000
     21 ****         2.9855   0.0038  -5.4621 O.2            1 S1                 0.0000
     22 ****         2.7128  -0.1352  -3.1968 N.am           1 S1                 0.0000
     23 ****         4.1187   0.1258  -2.8814 C.3            1 S1                 0.0000
     24 ****         0.6019  -0.4288  -5.6399 H              1 S1                 0.0000
     25 ****        -2.0359   3.1160   0.9306 H              1 S1                 0.0000
     26 ****        -3.5307   2.4105   0.3138 H              1 S1                 0.0000
     27 ****        -2.3191   3.0552  -0.8099 H              1 S1                 0.0000
     28 ****        -3.3944   0.2333  -0.7756 H              1 S1                 0.0000
     29 ****        -2.2221   0.8996  -1.9044 H              1 S1                 0.0000
     30 ****        -1.7562  -1.4342   0.0112 H              1 S1                 0.0000
     31 ****        -1.9629  -1.5883  -1.6947 H              1 S1                 0.0000
     32 ****        -0.3778  -2.4971   1.2219 H              1 S1                 0.0000
     33 ****         0.8002  -2.2621   2.4727 H              1 S1                 0.0000
     34 ****        -1.8589  -0.7229   2.2933 H              1 S1                 0.0000
     35 ****        -1.5277  -2.0608   3.3830 H              1 S1                 0.0000
     36 ****        -1.0546   0.8816   5.4501 H              1 S1                 0.0000
     37 ****        -1.9538  -0.6228   5.2702 H              1 S1                 0.0000
     38 ****        -2.2714   0.7294   4.1765 H              1 S1                 0.0000
     39 ****        -0.6117   1.3636   2.5441 H              1 S1                 0.0000
     40 ****         0.6043   1.4935   3.8043 H              1 S1                 0.0000
     41 ****         2.0145  -0.2428   2.6776 H              1 S1                 0.0000
     42 ****         1.6875   1.0997   1.6048 H              1 S1                 0.0000
     43 ****         4.7561   0.2474  -3.7578 H              1 S1                 0.0000
     44 ****         4.5276  -0.6964  -2.2935 H              1 S1                 0.0000
     45 ****         4.2025   1.0364  -2.2873 H              1 S1                 0.0000
     46 ****        -1.9566   0.7989   0.9713 LP             1 S1                 0.0000
     47 ****        -0.8443   1.3922  -0.0667 LP             1 S1                 0.0000
     48 ****         0.2309  -0.7882   4.3569 LP             1 S1                 0.0000
     49 ****         2.9272  -0.1700  -0.2696 LP             1 S1                 0.0000
     50 ****        -1.8690  -0.9578  -3.2503 LP             1 S1                 0.0000
     51 ****        -1.5222  -0.8262  -4.9422 LP             1 S1                 0.0000
     52 ****         2.6063  -0.0290  -6.3868 LP             1 S1                 0.0000
     53 ****         3.9609   0.1788  -5.3276 LP             1 S1                 0.0000
@<TRIPOS>BOND
    1    1    2 1     
    2    1   25 1     
    3    1   26 1     
    4    1   27 1     
    5    2    3 1     
    6    3    4 1     
    7    3   28 1     
    8    3   29 1     
    9    4    5 1     
   10    4   30 1     
   11    4   31 1     
   12    5   16 1     
   13    5    6 1     
   14    6    7 1     
   15    6   14 2     
   16    7   13 1     
   17    7    8 1     
   18    8    9 1     
   19    8   32 1     
   20    8   33 1     
   21    9   10 1     
   22    9   34 1     
   23    9   35 1     
   24   10   11 1     
   25   10   12 1     
   26   11   36 1     
   27   11   37 1     
   28   11   38 1     
   29   12   13 1     
   30   12   39 1     
   31   12   40 1     
   32   13   41 1     
   33   13   42 1     
   34   14   15 1     
   35   15   22 1     
   36   15   16 2     
   37   16   17 1     
   38   17   18 2     
   39   17   19 1     
   40   19   24 1     
   41   19   20 1     
   42   20   21 2     
   43   20   22 1     
   44   22   23 1     
   45   23   43 1     
   46   23   44 1     
   47   23   45 1     
   48    2   46 1     
   49    2   47 1     
   50   10   48 1     
   51   14   49 1     
   52   18   50 1     
   53   18   51 1     
   54   21   52 1     
   55   21   53 1     
@<TRIPOS>SUBSTRUCTURE
      1 S1             1
@<TRIPOS>SET
LONE_PAIRS      STATIC     ATOMS    <user>   **** ""
8 46 47 48 49 50 51 52 53
DONOR_HYDROGENS      STATIC     ATOMS    <user>   **** ""
1 24
ATOM$BLUE        STATIC     ATOMS    COLORGROUP SYSTEM
8 46 47 48 49 50 51 52 53
ATOM$RED        STATIC     ATOMS    COLORGROUP SYSTEM
1 24
