#       Name:                AV-unprocessed.smi:261
#       Creating user name   scv26
#       Creation time:       Thu Mar 26 21:17:57 2020


#       File generated by GOLD software.
#

@<TRIPOS>MOLECULE
AV-unprocessed.smi:261
    63    66     1
SMALL
NO_CHARGES


@<TRIPOS>ATOM
      1 ****        -5.9381   2.2688   2.2632 C.3            1 S1                 0.0000
      2 ****        -4.5792   2.3108   1.8597 O.3            1 S1                 0.0000
      3 ****        -3.9801   1.0274   1.7569 C.3            1 S1                 0.0000
      4 ****        -3.6664   0.3950   3.1137 C.3            1 S1                 0.0000
      5 ****        -2.5049  -0.5749   2.8279 C.3            1 S1                 0.0000
      6 ****        -2.9979  -2.0110   2.5903 C.2            1 S1                 0.0000
      7 ****        -2.9703  -2.8380   3.6380 N.am           1 S1                 0.0000
      8 ****        -3.4131  -2.3694   1.4891 O.2            1 S1                 0.0000
      9 ****        -1.8724  -0.0459   1.6160 N.3            1 S1                 0.0000
     10 ****        -0.5260   0.0576   1.6073 C.ar           1 S1                 0.0000
     11 ****         0.1069   0.7961   2.5563 N.ar           1 S1                 0.0000
     12 ****         1.4390   0.9058   2.5347 C.ar           1 S1                 0.0000
     13 ****         2.3072   0.3726   1.6715 N.ar           1 S1                 0.0000
     14 ****         1.6694  -0.3667   0.7187 C.ar           1 S1                 0.0000
     15 ****         0.2662  -0.5739   0.6148 C.ar           1 S1                 0.0000
     16 ****        -0.0198  -1.3820  -0.4775 N.2            1 S1                 0.0000
     17 ****         1.1517  -1.6431  -0.9902 C.2            1 S1                 0.0000
     18 ****         2.2206  -1.0646  -0.3412 N.pl3          1 S1                 0.0000
     19 ****         3.6244  -1.1808  -0.7031 C.3            1 S1                 0.0000
     20 ****         4.1147  -0.0680  -1.6565 C.3            1 S1                 0.0000
     21 ****         4.0992   1.1669  -0.9682 O.3            1 S1                 0.0000
     22 ****         3.2713   0.0758  -2.9401 C.3            1 S1                 0.0000
     23 ****         3.8515   1.0353  -3.9808 C.3            1 S1                 0.0000
     24 ****         3.2952   0.5181  -5.2997 C.3            1 S1                 0.0000
     25 ****         2.7317  -0.8623  -4.9527 C.3            1 S1                 0.0000
     26 ****         3.2382  -1.1478  -3.6577 O.3            1 S1                 0.0000
     27 ****        -2.5902   1.1275   1.1359 C.3            1 S1                 0.0000
     28 ****        -4.5948   0.3538   1.1566 H              1 S1                 0.0000
     29 ****        -1.8201  -0.5822   3.6782 H              1 S1                 0.0000
     30 ****        -6.3366   3.2824   2.3044 H              1 S1                 0.0000
     31 ****        -6.0503   1.8267   3.2537 H              1 S1                 0.0000
     32 ****        -6.5413   1.6996   1.5549 H              1 S1                 0.0000
     33 ****        -3.3265   1.1661   3.8066 H              1 S1                 0.0000
     34 ****        -4.5357  -0.0860   3.5640 H              1 S1                 0.0000
     35 ****        -3.2833  -3.7926   3.5369 H              1 S1                 0.0000
     36 ****        -2.6355  -2.5035   4.5298 H              1 S1                 0.0000
     37 ****         1.8708   1.5079   3.3206 H              1 S1                 0.0000
     38 ****         1.2691  -2.2607  -1.8690 H              1 S1                 0.0000
     39 ****         4.2211  -1.1892   0.2101 H              1 S1                 0.0000
     40 ****         3.7719  -2.1555  -1.1695 H              1 S1                 0.0000
     41 ****         5.1493  -0.2806  -1.9275 H              1 S1                 0.0000
     42 ****         3.2170   1.3336  -0.6720 H              1 S1                 0.0000
     43 ****         2.2475   0.3719  -2.7031 H              1 S1                 0.0000
     44 ****         3.5831   2.0742  -3.7865 H              1 S1                 0.0000
     45 ****         4.9403   0.9678  -3.9944 H              1 S1                 0.0000
     46 ****         2.5112   1.1678  -5.6902 H              1 S1                 0.0000
     47 ****         4.0826   0.4520  -6.0514 H              1 S1                 0.0000
     48 ****         1.6417  -0.8327  -4.9116 H              1 S1                 0.0000
     49 ****         3.0248  -1.6292  -5.6698 H              1 S1                 0.0000
     50 ****        -2.6377   1.1414   0.0466 H              1 S1                 0.0000
     51 ****        -2.0929   2.0429   1.4625 H              1 S1                 0.0000
     52 ****        -4.0662   2.8470   2.5299 LP             1 S1                 0.0000
     53 ****        -4.5278   2.7569   0.9661 LP             1 S1                 0.0000
     54 ****        -3.4343  -1.7215   0.7276 LP             1 S1                 0.0000
     55 ****        -3.7295  -3.3086   1.3554 LP             1 S1                 0.0000
     56 ****        -1.9737  -0.7701   0.9339 LP             1 S1                 0.0000
     57 ****        -0.4225   1.2563   3.2690 LP             1 S1                 0.0000
     58 ****         3.2981   0.4990   1.7175 LP             1 S1                 0.0000
     59 ****        -0.9153  -1.6919  -0.7971 LP             1 S1                 0.0000
     60 ****         4.3930   1.8993  -1.5825 LP             1 S1                 0.0000
     61 ****         4.7163   1.1231  -0.1826 LP             1 S1                 0.0000
     62 ****         2.6410  -1.8014  -3.1929 LP             1 S1                 0.0000
     63 ****         4.1599  -1.5293  -3.7270 LP             1 S1                 0.0000
@<TRIPOS>BOND
    1    1    2 1     
    2    1   30 1     
    3    1   31 1     
    4    1   32 1     
    5    2    3 1     
    6    3   28 1     
    7    3   27 1     
    8    3    4 1     
    9    4    5 1     
   10    4   33 1     
   11    4   34 1     
   12    5   29 1     
   13    5    6 1     
   14    5    9 1     
   15    6    7 am    
   16    6    8 2     
   17    7   35 1     
   18    7   36 1     
   19    9   10 1     
   20    9   27 1     
   21   10   15 ar    
   22   10   11 ar    
   23   11   12 ar    
   24   12   13 ar    
   25   12   37 1     
   26   13   14 ar    
   27   14   18 1     
   28   14   15 ar    
   29   15   16 1     
   30   16   17 2     
   31   17   18 1     
   32   17   38 1     
   33   18   19 1     
   34   19   20 1     
   35   19   39 1     
   36   19   40 1     
   37   20   21 1     
   38   20   22 1     
   39   20   41 1     
   40   21   42 1     
   41   22   26 1     
   42   22   23 1     
   43   22   43 1     
   44   23   24 1     
   45   23   44 1     
   46   23   45 1     
   47   24   25 1     
   48   24   46 1     
   49   24   47 1     
   50   25   26 1     
   51   25   48 1     
   52   25   49 1     
   53   27   50 1     
   54   27   51 1     
   55    2   52 1     
   56    2   53 1     
   57    8   54 1     
   58    8   55 1     
   59    9   56 1     
   60   11   57 1     
   61   13   58 1     
   62   16   59 1     
   63   21   60 1     
   64   21   61 1     
   65   26   62 1     
   66   26   63 1     
@<TRIPOS>SUBSTRUCTURE
      1 S1             1
@<TRIPOS>SET
LONE_PAIRS      STATIC     ATOMS    <user>   **** ""
12 52 53 54 55 56 57 58 59 60 61 62 63
DONOR_HYDROGENS      STATIC     ATOMS    <user>   **** ""
3 35 36 42
ATOM$BLUE        STATIC     ATOMS    COLORGROUP SYSTEM
12 52 53 54 55 56 57 58 59 60 61 62 63
ATOM$RED        STATIC     ATOMS    COLORGROUP SYSTEM
3 35 36 42
