AV-unprocessed.smi:232|AV-procd|sdf|1771|dock1
  -GOLD-   2262020313D 1   1.00000     0.00000
 Structure written by MMmdl.
 52 55  0  0  0  0  0  0  0  0  1 V2000
  150.7881  140.8531  156.3107 C   0  0  0  0  0  0  0  0  0  0  0  0
  149.2847  141.0112  156.5735 C   0  0  0  0  0  0  0  0  0  0  0  0
  148.4129  140.5443  155.3913 C   0  0  2  0  0  0  0  0  0  0  0  0
  148.7145  141.3314  154.0956 C   0  0  0  0  0  0  0  0  0  0  0  0
  147.4260  142.0909  153.7629 C   0  0  0  0  0  0  0  0  0  0  0  0
  146.6437  142.0374  155.0732 C   0  0  1  0  0  0  0  0  0  0  0  0
  145.1383  142.3374  154.9373 C   0  0  0  0  0  0  0  0  0  0  0  0
  146.9886  140.7464  155.6666 N   0  0  0  0  0  0  0  0  0  0  0  0
  146.1760  139.6992  155.3786 C   0  0  0  0  0  0  0  0  0  0  0  0
  145.3173  139.2065  156.3113 N   0  0  0  0  0  0  0  0  0  0  0  0
  144.5396  138.1599  156.0180 C   0  0  0  0  0  0  0  0  0  0  0  0
  144.4650  137.4683  154.8784 N   0  0  0  0  0  0  0  0  0  0  0  0
  145.3264  137.9610  153.9428 C   0  0  0  0  0  0  0  0  0  0  0  0
  146.2091  139.0640  154.1093 C   0  0  0  0  0  0  0  0  0  0  0  0
  146.9364  139.2744  152.9447 N   0  0  0  0  0  0  0  0  0  0  0  0
  146.5091  138.3446  152.1338 C   0  0  0  0  0  0  0  0  0  0  0  0
  145.5445  137.5109  152.6529 N   0  0  0  0  0  0  0  0  0  0  0  0
  144.9055  136.3980  151.9726 C   0  0  0  0  0  0  0  0  0  0  0  0
  145.9211  135.3456  151.4862 C   0  0  1  0  0  0  0  0  0  0  0  0
  146.8077  135.0288  152.5422 O   0  0  0  0  0  0  0  0  0  0  0  0
  145.2354  134.0524  151.0087 C   0  0  2  0  0  0  0  0  0  0  0  0
  146.1934  132.9725  150.5007 C   0  0  0  0  0  0  0  0  0  0  0  0
  145.3481  132.1655  149.5268 C   0  0  0  0  0  0  0  0  0  0  0  0
  144.1172  133.0427  149.2855 C   0  0  0  0  0  0  0  0  0  0  0  0
  144.4444  134.3013  149.8567 O   0  0  0  0  0  0  0  0  0  0  0  0
  151.3694  141.2202  157.1565 H   0  0  0  0  0  0  0  0  0  0  0  0
  151.0939  141.4146  155.4277 H   0  0  0  0  0  0  0  0  0  0  0  0
  151.0577  139.8083  156.1537 H   0  0  0  0  0  0  0  0  0  0  0  0
  149.0137  140.4726  157.4822 H   0  0  0  0  0  0  0  0  0  0  0  0
  149.0808  142.0638  156.7727 H   0  0  0  0  0  0  0  0  0  0  0  0
  148.6263  139.4878  155.2191 H   0  0  0  0  0  0  0  0  0  0  0  0
  149.5420  142.0275  154.2381 H   0  0  0  0  0  0  0  0  0  0  0  0
  148.9913  140.6636  153.2792 H   0  0  0  0  0  0  0  0  0  0  0  0
  147.6115  143.1115  153.4273 H   0  0  0  0  0  0  0  0  0  0  0  0
  146.8824  141.5714  152.9728 H   0  0  0  0  0  0  0  0  0  0  0  0
  147.0572  142.7932  155.7423 H   0  0  0  0  0  0  0  0  0  0  0  0
  144.9817  143.3471  154.5575 H   0  0  0  0  0  0  0  0  0  0  0  0
  144.6347  142.2683  155.9019 H   0  0  0  0  0  0  0  0  0  0  0  0
  144.6449  141.6512  154.2480 H   0  0  0  0  0  0  0  0  0  0  0  0
  143.8855  137.8271  156.8104 H   0  0  0  0  0  0  0  0  0  0  0  0
  146.8904  138.2385  151.1284 H   0  0  0  0  0  0  0  0  0  0  0  0
  144.1748  135.9459  152.6449 H   0  0  0  0  0  0  0  0  0  0  0  0
  144.3431  136.7984  151.1284 H   0  0  0  0  0  0  0  0  0  0  0  0
  146.5093  135.7643  150.6684 H   0  0  0  0  0  0  0  0  0  0  0  0
  147.5570  135.6020  152.4863 H   0  0  0  0  0  0  0  0  0  0  0  0
  144.5964  133.6442  151.7946 H   0  0  0  0  0  0  0  0  0  0  0  0
  147.0278  133.4284  149.9658 H   0  0  0  0  0  0  0  0  0  0  0  0
  146.6050  132.3652  151.3073 H   0  0  0  0  0  0  0  0  0  0  0  0
  145.8959  131.9776  148.6028 H   0  0  0  0  0  0  0  0  0  0  0  0
  145.0588  131.2020  149.9480 H   0  0  0  0  0  0  0  0  0  0  0  0
  143.8733  133.1420  148.2279 H   0  0  0  0  0  0  0  0  0  0  0  0
  143.2469  132.6317  149.7991 H   0  0  0  0  0  0  0  0  0  0  0  0
  1  2  1  0  0  0  0
  1 26  1  0  0  0  0
  1 27  1  0  0  0  0
  1 28  1  0  0  0  0
  2  3  1  0  0  0  0
  2 29  1  0  0  0  0
  2 30  1  0  0  0  0
  3  8  1  0  0  0  0
  3  4  1  0  0  0  0
  3 31  1  0  0  0  0
  4  5  1  0  0  0  0
  4 32  1  0  0  0  0
  4 33  1  0  0  0  0
  5  6  1  0  0  0  0
  5 34  1  0  0  0  0
  5 35  1  0  0  0  0
  6  7  1  0  0  0  0
  6  8  1  0  0  0  0
  6 36  1  0  0  0  0
  7 37  1  0  0  0  0
  7 38  1  0  0  0  0
  7 39  1  0  0  0  0
  8  9  1  0  0  0  0
  9 14  1  0  0  0  0
  9 10  2  0  0  0  0
 10 11  1  0  0  0  0
 11 12  2  0  0  0  0
 11 40  1  0  0  0  0
 12 13  1  0  0  0  0
 13 17  1  0  0  0  0
 13 14  2  0  0  0  0
 14 15  1  0  0  0  0
 15 16  2  0  0  0  0
 16 17  1  0  0  0  0
 16 41  1  0  0  0  0
 17 18  1  0  0  0  0
 18 19  1  0  0  0  0
 18 42  1  0  0  0  0
 18 43  1  0  0  0  0
 19 20  1  0  0  0  0
 19 21  1  0  0  0  0
 19 44  1  0  0  0  0
 20 45  1  0  0  0  0
 21 25  1  0  0  0  0
 21 22  1  0  0  0  0
 21 46  1  0  0  0  0
 22 23  1  0  0  0  0
 22 47  1  0  0  0  0
 22 48  1  0  0  0  0
 23 24  1  0  0  0  0
 23 49  1  0  0  0  0
 23 50  1  0  0  0  0
 24 25  1  0  0  0  0
 24 51  1  0  0  0  0
 24 52  1  0  0  0  0
M  END
> <s_m_source_file>
AV-unprocessed.smi

> <i_m_source_file_index>
232

> <i_lp_mmshare_version>
43012

> <i_f3d_flags>
0

> <s_epik_input>
W0NIM11bQ0gyXVtDQEBIXTFbQ0gyXVtDSDJdW0NAQEhdKFtDSDNdKU4xYyhuW2NIXW4yKWMoYzIzKW5bY0hdbjNbQ0gyXVtDQEhdKFtPSF0pW0NAQEhdNFtDSDJdW0NIMl1bQ0gyXU80

> <s_epik_cmdline>
J2VwaWtfcHl0aG9uJywgJy1waCcsICc3LjAnLCAnLXRuJywgJzgnLCAnLW1hJywgJzIwMCcsICctbWV0YWxfYmluZGluZycsICctaW1hZScsICc8aW5maWxlLm1hZT4nLCAnLW9tYWUnLCAnPG91dGZpbGUubWFlPic=

> <r_lp_tautomer_probability>
1

> <r_epik_Ionization_Penalty>
0.00258048

> <r_epik_Ionization_Penalty_Charging>
0

> <r_epik_Ionization_Penalty_Neutral>
0.00258048

> <r_epik_State_Penalty>
0.00168551

> <r_epik_Charging_Adjusted_Penalty>
0.00168551

> <i_epik_Tot_Q>
0

> <i_epik_Tot_abs_Q>
0

> <r_epik_Metal_State_Penalty>
-0

> <b_epik_Metal_Only>
0

> <s_lp_Force_Field>
OPLS_2005

> <r_lp_Energy>
56.5001

> <b_lp_Chiralities_Consistent>
1

> <s_lp_Variant>
AV-unprocessed.smi:232-5

> <Gold.Version>
5.8.1

> <Gold.Id.Protein>
6NUR|6NUR_protein|mol2

> <Gold.PLP.Fitness>
39.8074

> <Gold.PLP.PLP>
-37.3597

> <Gold.PLP.part.hbond>
-0.9157

> <Gold.PLP.part.metal>
0.0000

> <Gold.PLP.part.buried>
-5.2505

> <Gold.PLP.part.nonpolar>
-32.7039

> <Gold.PLP.part.repulsive>
1.8130

> <Gold.PLP.ligand.clash>
0.0000

> <Gold.PLP.ligand.torsion>
0.3202

> <Gold.PLP.Chemscore.Hbond>
1.0000

> <Gold.PLP.Chemscore.CHOScore>
0.0000

> <Gold.PLP.Chemscore.Metal>
0.0000

> <Gold.Chemscore.Hbonds>
donor molecule, donor type, donor heavy atom, donor atom, acceptor molecule, acceptor atom, score
      L1  H    20    45       P1  7948  1.00

> <Gold.PLP.Chemscore.Internal.Correction>
0.0881

> <Gold.Rescore>
     Score         DG    S(hbond)    S(metal)    S(lipo)     H(rot)  DE(clash)    DE(int)     intcor
      9.78     -12.76       0.99        0.00      87.10       2.43       0.45       2.53       ----

> <Gold.Chemscore.Fitness>
9.7754

> <Gold.Chemscore.DG>
-12.7620

> <Gold.Chemscore.ZeroCoef>
-5.4800

> <Gold.Chemscore.Hbond>
0.9886

> <Gold.Chemscore.Metal>
0.0000

> <Gold.Chemscore.Lipo>
87.1007

> <Gold.Chemscore.Internal_Hbond>
0.0000

> <Gold.Chemscore.DEClash>
0.4530

> <Gold.Chemscore.DEInternal>
2.5336

> <Gold.Chemscore.Rot>
2.4260

> <Gold.Chemscore.Internal.Correction>
   9.000000E+99

> <Gold.Chemscore.Hbonds>
donor molecule, donor type, donor heavy atom, donor atom, acceptor molecule, acceptor atom, score
      L1  H    20    45       P1  7948  0.98

> <Gold.Chemscore.Hbond.Weighted>
-3.3019

> <Gold.Chemscore.Metal.Weighted>
-0.0000

> <Gold.Chemscore.Lipo.Weighted>
-10.1908

> <Gold.Chemscore.Internal_Hbond.Weighted>
0.0000

> <Gold.Chemscore.DEClash.Weighted>
0.4530

> <Gold.Chemscore.DEInternal.Weighted>
2.5336

> <Gold.Chemscore.Rot.Weighted>
6.2107

> <Gold.Chemscore.Internal.Correction.Weighted>
   9.000000E+99

> <Gold.Protein.RotatedTorsions>
[ 6907 6896 6895 6894 ] final -102.80 input  -60.11 | X-H torsion
[ 7974 7965 7964 7962 ] final  166.96 input  175.53 | X-H torsion
[ 8008 7997 7996 7995 ] final   33.19 input   59.86 | X-H torsion
[ 10167 10162 10161 10158 ] final  -41.89 input  -65.29 | X-H torsion
[ 10718 10713 10712 10709 ] final  -96.22 input   66.30 | X-H torsion
[ 10763 10752 10751 10750 ] final -114.87 input  -60.55 | X-H torsion
[ 11005 11000 10999 10996 ] final  123.99 input  -57.11 | X-H torsion

> <Gold.Protein.ActiveResidues>
 VAL166  LYS551  ARG553  GLY616  TRP617  ASP618  TYR619  PRO620  LYS621  CYS622 
 ASP623  PHE694  ASN695  SER759  ASP760  ASP761  ALA762  ILE779  LEU786  VAL792 
 PHE793  MET794  SER795  GLU796  ALA797  LYS798  CYS799  TRP800  GLU811  SER814 

> <Gold.Protein.RotatedAtoms>
  150.7212  134.0526  159.3803 H   0  0  0  0  0  0  0  0  0  0  0  0  # atno 6907 bound_to 6896
  151.8504  135.0557  160.0467 H   0  0  0  0  0  0  0  0  0  0  0  0  # atno 6908 bound_to 6896
  152.2795  133.5421  159.5525 H   0  0  0  0  0  0  0  0  0  0  0  0  # atno 6909 bound_to 6896
  144.7442  139.8691  143.6387 H   0  0  0  0  0  0  0  0  0  0  0  0  # atno 7974 bound_to 7965
  155.1346  140.3260  155.4466 H   0  0  0  0  0  0  0  0  0  0  0  0  # atno 8008 bound_to 7997
  156.2624  140.2004  156.6413 H   0  0  0  0  0  0  0  0  0  0  0  0  # atno 8009 bound_to 7997
  154.6587  140.0550  157.0025 H   0  0  0  0  0  0  0  0  0  0  0  0  # atno 8010 bound_to 7997
  140.6988  143.3069  151.3131 H   0  0  0  0  0  0  0  0  0  0  0  0  # atno 10167 bound_to 10162
  156.0058  130.5142  150.6193 H   0  0  0  0  0  0  0  0  0  0  0  0  # atno 10718 bound_to 10713
  154.8458  135.4402  154.1574 H   0  0  0  0  0  0  0  0  0  0  0  0  # atno 10763 bound_to 10752
  153.2719  135.6946  153.7478 H   0  0  0  0  0  0  0  0  0  0  0  0  # atno 10764 bound_to 10752
  153.6715  135.3418  155.3129 H   0  0  0  0  0  0  0  0  0  0  0  0  # atno 10765 bound_to 10752
  139.9338  134.9640  156.8342 H   0  0  0  0  0  0  0  0  0  0  0  0  # atno 11005 bound_to 11000
  146.1293  139.4325  143.0179 LP  0  0  0  0  0  0  0  0  0  0  0  0  # atno 17320 bound_to 7965
  145.7187  141.0082  143.1414 LP  0  0  0  0  0  0  0  0  0  0  0  0  # atno 17321 bound_to 7965
  139.6477  144.0420  152.2603 LP  0  0  0  0  0  0  0  0  0  0  0  0  # atno 17342 bound_to 10162
  139.9946  144.6337  150.7784 LP  0  0  0  0  0  0  0  0  0  0  0  0  # atno 17343 bound_to 10162
  157.4012  131.0810  151.1307 LP  0  0  0  0  0  0  0  0  0  0  0  0  # atno 17370 bound_to 10713
  157.1968  130.6376  149.5724 LP  0  0  0  0  0  0  0  0  0  0  0  0  # atno 17371 bound_to 10713
  140.6131  134.0064  155.7585 LP  0  0  0  0  0  0  0  0  0  0  0  0  # atno 17394 bound_to 11000
  141.0941  133.9871  157.3189 LP  0  0  0  0  0  0  0  0  0  0  0  0  # atno 17395 bound_to 11000

$$$$
