AV-unprocessed.smi:2790|AV-procd|sdf|10768|dock7
  -GOLD-   2272015203D 1   1.00000     0.00000
 Structure written by MMmdl.
 45 46  0  0  0  0  0  0  0  0  1 V2000
  148.1100  127.4178  151.3152 C   0  0  0  0  0  0  0  0  0  0  0  0
  147.6316  128.7526  151.6737 N   0  0  0  0  0  0  0  0  0  0  0  0
  146.2217  128.6842  152.0410 C   0  0  0  0  0  0  0  0  0  0  0  0
  148.4054  129.3616  152.7804 C   0  0  0  0  0  0  0  0  0  0  0  0
  147.8299  130.6775  153.3171 C   0  0  0  0  0  0  0  0  0  0  0  0
  147.5158  130.7782  154.5028 O   0  0  0  0  0  0  0  0  0  0  0  0
  147.6924  131.6724  152.4301 N   0  0  0  0  0  0  0  0  0  0  0  0
  147.1943  133.0082  152.7398 C   0  0  0  0  0  0  0  0  0  0  0  0
  145.8664  133.3225  152.0047 C   0  0  0  0  0  0  0  0  0  0  0  0
  145.2369  134.5882  152.6350 C   0  0  0  0  0  0  0  0  0  0  0  0
  144.8948  134.6687  154.0082 C   0  0  0  0  0  0  0  0  0  0  0  0
  144.3517  135.8657  154.5150 C   0  0  0  0  0  0  0  0  0  0  0  0
  144.1454  136.9654  153.7630 N   0  0  0  0  0  0  0  0  0  0  0  0
  144.4887  136.9033  152.4611 C   0  0  0  0  0  0  0  0  0  0  0  0
  145.0373  135.7548  151.8575 C   0  0  0  0  0  0  0  0  0  0  0  0
  146.1839  133.5317  150.4955 C   0  0  0  0  0  0  0  0  0  0  0  0
  144.9207  133.7111  149.6348 C   0  0  0  0  0  0  0  0  0  0  0  0
  144.0028  132.4868  149.7533 C   0  0  0  0  0  0  0  0  0  0  0  0
  143.6634  132.1916  151.2204 C   0  0  0  0  0  0  0  0  0  0  0  0
  144.9395  132.0690  152.0790 C   0  0  0  0  0  0  0  0  0  0  0  0
  149.1330  127.4423  150.9391 H   0  0  0  0  0  0  0  0  0  0  0  0
  147.4958  126.9895  150.5224 H   0  0  0  0  0  0  0  0  0  0  0  0
  148.0777  126.7411  152.1705 H   0  0  0  0  0  0  0  0  0  0  0  0
  145.8330  129.6776  152.2678 H   0  0  0  0  0  0  0  0  0  0  0  0
  146.0643  128.0494  152.9147 H   0  0  0  0  0  0  0  0  0  0  0  0
  145.6266  128.2844  151.2190 H   0  0  0  0  0  0  0  0  0  0  0  0
  148.4531  128.6621  153.6164 H   0  0  0  0  0  0  0  0  0  0  0  0
  149.4347  129.5319  152.4588 H   0  0  0  0  0  0  0  0  0  0  0  0
  147.9723  131.4974  151.4754 H   0  0  0  0  0  0  0  0  0  0  0  0
  147.0525  133.0757  153.8195 H   0  0  0  0  0  0  0  0  0  0  0  0
  147.9531  133.7492  152.4812 H   0  0  0  0  0  0  0  0  0  0  0  0
  145.0383  133.8437  154.6874 H   0  0  0  0  0  0  0  0  0  0  0  0
  144.0811  135.9424  155.5576 H   0  0  0  0  0  0  0  0  0  0  0  0
  144.3291  137.8005  151.8814 H   0  0  0  0  0  0  0  0  0  0  0  0
  145.3062  135.7925  150.8135 H   0  0  0  0  0  0  0  0  0  0  0  0
  146.8615  134.3691  150.3363 H   0  0  0  0  0  0  0  0  0  0  0  0
  146.7259  132.6622  150.1199 H   0  0  0  0  0  0  0  0  0  0  0  0
  144.3830  134.6106  149.9370 H   0  0  0  0  0  0  0  0  0  0  0  0
  145.2025  133.8580  148.5917 H   0  0  0  0  0  0  0  0  0  0  0  0
  143.0878  132.6464  149.1822 H   0  0  0  0  0  0  0  0  0  0  0  0
  144.4950  131.6188  149.3126 H   0  0  0  0  0  0  0  0  0  0  0  0
  143.0143  132.9774  151.6055 H   0  0  0  0  0  0  0  0  0  0  0  0
  143.0878  131.2678  151.2841 H   0  0  0  0  0  0  0  0  0  0  0  0
  145.4938  131.1996  151.7218 H   0  0  0  0  0  0  0  0  0  0  0  0
  144.6775  131.8227  153.1076 H   0  0  0  0  0  0  0  0  0  0  0  0
  1  2  1  0  0  0  0
  1 21  1  0  0  0  0
  1 22  1  0  0  0  0
  1 23  1  0  0  0  0
  2  3  1  0  0  0  0
  2  4  1  0  0  0  0
  3 24  1  0  0  0  0
  3 25  1  0  0  0  0
  3 26  1  0  0  0  0
  4  5  1  0  0  0  0
  4 27  1  0  0  0  0
  4 28  1  0  0  0  0
  5  6  2  0  0  0  0
  5  7  1  0  0  0  0
  7  8  1  0  0  0  0
  7 29  1  0  0  0  0
  8  9  1  0  0  0  0
  8 30  1  0  0  0  0
  8 31  1  0  0  0  0
  9 20  1  0  0  0  0
  9 10  1  0  0  0  0
  9 16  1  0  0  0  0
 10 15  1  0  0  0  0
 10 11  2  0  0  0  0
 11 12  1  0  0  0  0
 11 32  1  0  0  0  0
 12 13  2  0  0  0  0
 12 33  1  0  0  0  0
 13 14  1  0  0  0  0
 14 15  2  0  0  0  0
 14 34  1  0  0  0  0
 15 35  1  0  0  0  0
 16 17  1  0  0  0  0
 16 36  1  0  0  0  0
 16 37  1  0  0  0  0
 17 18  1  0  0  0  0
 17 38  1  0  0  0  0
 17 39  1  0  0  0  0
 18 19  1  0  0  0  0
 18 40  1  0  0  0  0
 18 41  1  0  0  0  0
 19 20  1  0  0  0  0
 19 42  1  0  0  0  0
 19 43  1  0  0  0  0
 20 44  1  0  0  0  0
 20 45  1  0  0  0  0
M  END
> <s_m_source_file>
AV-unprocessed.smi

> <i_m_source_file_index>
2790

> <i_lp_mmshare_version>
43012

> <i_f3d_flags>
0

> <s_epik_input>
W0NIM11OKFtDSDNdKVtDSDJdQyg9TylbTkhdW0NIMl1DMShbQ0gyXVtDSDJdW0NIMl1bQ0gyXVtDSDJdMSljMltjSF1bY0hdbltjSF1bY0hdMg==

> <s_epik_cmdline>
J2VwaWtfcHl0aG9uJywgJy1waCcsICc3LjAnLCAnLXRuJywgJzgnLCAnLW1hJywgJzIwMCcsICctbWV0YWxfYmluZGluZycsICctaW1hZScsICc8aW5maWxlLm1hZT4nLCAnLW9tYWUnLCAnPG91dGZpbGUubWFlPic=

> <r_epik_Ionization_Penalty>
1.73486

> <r_epik_Ionization_Penalty_Charging>
0

> <r_epik_Ionization_Penalty_Neutral>
1.73486

> <r_epik_State_Penalty>
1.84779

> <r_epik_Charging_Adjusted_Penalty>
1.84779

> <i_epik_Tot_Q>
0

> <i_epik_Tot_abs_Q>
0

> <r_epik_Metal_State_Penalty>
1.83713

> <b_epik_Metal_Only>
0

> <s_lp_Force_Field>
OPLS_2005

> <r_lp_Energy>
21.958

> <b_lp_Chiralities_Consistent>
1

> <s_lp_Variant>
AV-unprocessed.smi:2790-3

> <Gold.Version>
5.8.1

> <Gold.Id.Protein>
6NUR|6NUR_protein|mol2

> <Gold.PLP.Fitness>
37.9512

> <Gold.PLP.PLP>
-29.9279

> <Gold.PLP.part.hbond>
-1.0000

> <Gold.PLP.part.metal>
0.0000

> <Gold.PLP.part.buried>
0.7514

> <Gold.PLP.part.nonpolar>
-28.5830

> <Gold.PLP.part.repulsive>
1.2150

> <Gold.PLP.ligand.clash>
0.0000

> <Gold.PLP.ligand.torsion>
0.2124

> <Gold.PLP.Chemscore.Hbond>
1.0000

> <Gold.PLP.Chemscore.CHOScore>
1.8047

> <Gold.PLP.Chemscore.Metal>
0.0000

> <Gold.Chemscore.Hbonds>
donor molecule, donor type, donor heavy atom, donor atom, acceptor molecule, acceptor atom, score
      L1  H     7    29       P1 10747  1.00
      L1  C    14    34       P1 10171  1.00
      L1  C    14    34       P1 10175  0.38

> <Gold.PLP.Chemscore.Internal.Correction>
0.0341

> <Gold.Rescore>
     Score         DG    S(hbond)    S(metal)    S(lipo)     H(rot)  DE(clash)    DE(int)     intcor
     12.63     -15.37       0.97        0.00      90.82       1.55       1.55       1.19       ----

> <Gold.Chemscore.Fitness>
12.6263

> <Gold.Chemscore.DG>
-15.3684

> <Gold.Chemscore.ZeroCoef>
-5.4800

> <Gold.Chemscore.Hbond>
0.9675

> <Gold.Chemscore.Metal>
0.0000

> <Gold.Chemscore.Lipo>
90.8246

> <Gold.Chemscore.Internal_Hbond>
0.0000

> <Gold.Chemscore.DEClash>
1.5475

> <Gold.Chemscore.DEInternal>
1.1946

> <Gold.Chemscore.Rot>
1.5505

> <Gold.Chemscore.Internal.Correction>
   9.000000E+99

> <Gold.Chemscore.Hbonds>
donor molecule, donor type, donor heavy atom, donor atom, acceptor molecule, acceptor atom, score
      L1  H     7    29       P1 10747  0.98

> <Gold.Chemscore.Hbond.Weighted>
-3.2313

> <Gold.Chemscore.Metal.Weighted>
-0.0000

> <Gold.Chemscore.Lipo.Weighted>
-10.6265

> <Gold.Chemscore.Internal_Hbond.Weighted>
0.0000

> <Gold.Chemscore.DEClash.Weighted>
1.5475

> <Gold.Chemscore.DEInternal.Weighted>
1.1946

> <Gold.Chemscore.Rot.Weighted>
3.9693

> <Gold.Chemscore.Internal.Correction.Weighted>
   9.000000E+99

> <Gold.Protein.RotatedTorsions>
[ 6907 6896 6895 6894 ] final -134.07 input  -60.11 | X-H torsion
[ 7974 7965 7964 7962 ] final  110.16 input  175.53 | X-H torsion
[ 8008 7997 7996 7995 ] final -136.00 input   59.86 | X-H torsion
[ 10167 10162 10161 10158 ] final -124.05 input  -65.29 | X-H torsion
[ 10718 10713 10712 10709 ] final  173.31 input   66.30 | X-H torsion
[ 10763 10752 10751 10750 ] final  -89.36 input  -60.55 | X-H torsion
[ 11005 11000 10999 10996 ] final  143.88 input  -57.11 | X-H torsion

> <Gold.Protein.ActiveResidues>
 VAL166  LYS551  ARG553  GLY616  TRP617  ASP618  TYR619  PRO620  LYS621  CYS622 
 ASP623  PHE694  ASN695  SER759  ASP760  ASP761  ALA762  ILE779  LEU786  VAL792 
 PHE793  MET794  SER795  GLU796  ALA797  LYS798  CYS799  TRP800  GLU811  SER814 

> <Gold.Protein.RotatedAtoms>
  150.9815  133.6241  159.2721 H   0  0  0  0  0  0  0  0  0  0  0  0  # atno 6907 bound_to 6896
  151.3494  135.0880  159.9407 H   0  0  0  0  0  0  0  0  0  0  0  0  # atno 6908 bound_to 6896
  152.5217  133.9411  159.7681 H   0  0  0  0  0  0  0  0  0  0  0  0  # atno 6909 bound_to 6896
  145.2585  139.2711  143.4029 H   0  0  0  0  0  0  0  0  0  0  0  0  # atno 7974 bound_to 7965
  155.3881  140.0498  157.3041 H   0  0  0  0  0  0  0  0  0  0  0  0  # atno 8008 bound_to 7997
  154.5050  140.2171  155.9232 H   0  0  0  0  0  0  0  0  0  0  0  0  # atno 8009 bound_to 7997
  156.1514  140.3135  155.8659 H   0  0  0  0  0  0  0  0  0  0  0  0  # atno 8010 bound_to 7997
  139.9969  143.5581  152.2319 H   0  0  0  0  0  0  0  0  0  0  0  0  # atno 10167 bound_to 10162
  156.9662  131.0076  151.2916 H   0  0  0  0  0  0  0  0  0  0  0  0  # atno 10718 bound_to 10713
  154.6544  135.5344  153.7941 H   0  0  0  0  0  0  0  0  0  0  0  0  # atno 10763 bound_to 10752
  153.0405  135.6490  154.0968 H   0  0  0  0  0  0  0  0  0  0  0  0  # atno 10764 bound_to 10752
  154.0882  135.2942  155.3257 H   0  0  0  0  0  0  0  0  0  0  0  0  # atno 10765 bound_to 10752
  140.0589  134.9215  157.1149 H   0  0  0  0  0  0  0  0  0  0  0  0  # atno 11005 bound_to 11000
  146.3282  140.2996  142.8620 LP  0  0  0  0  0  0  0  0  0  0  0  0  # atno 17320 bound_to 7965
  144.9439  140.8107  143.5613 LP  0  0  0  0  0  0  0  0  0  0  0  0  # atno 17321 bound_to 7965
  139.6299  144.7643  151.2558 LP  0  0  0  0  0  0  0  0  0  0  0  0  # atno 17342 bound_to 10162
  140.7433  143.6497  150.8260 LP  0  0  0  0  0  0  0  0  0  0  0  0  # atno 17343 bound_to 10162
  157.5624  130.8255  149.8283 LP  0  0  0  0  0  0  0  0  0  0  0  0  # atno 17370 bound_to 10713
  156.0302  130.3767  150.1710 LP  0  0  0  0  0  0  0  0  0  0  0  0  # atno 17371 bound_to 10713
  140.3801  134.2296  155.7171 LP  0  0  0  0  0  0  0  0  0  0  0  0  # atno 17394 bound_to 11000
  141.1964  133.8083  157.0672 LP  0  0  0  0  0  0  0  0  0  0  0  0  # atno 17395 bound_to 11000

$$$$
