AV-unprocessed.smi:1251|AV-procd|sdf|5262|dock7
  -GOLD-   22720 4373D 1   1.00000     0.00000
 Structure written by MMmdl.
 38 39  0  0  0  0  0  0  0  0  2 V2000
  142.5785  135.0022  163.0640 C   0  0  0  0  0  0  0  0  0  0  0  0
  143.7558  135.5601  162.2572 C   0  0  0  0  0  0  0  0  0  0  0  0
  145.0604  134.7919  162.5100 C   0  0  0  0  0  0  0  0  0  0  0  0
  146.2062  135.3359  161.7239 C   0  0  0  0  0  0  0  0  0  0  0  0
  146.6634  136.5813  161.8770 N   0  0  0  0  0  0  0  0  0  0  0  0
  147.7523  136.8428  161.0584 N   0  0  0  0  0  0  0  0  0  0  0  0
  148.1077  135.7927  160.3047 C   0  0  0  0  0  0  0  0  0  0  0  0
  149.1427  135.8379  159.4498 N   0  5  0  0  0  0  0  0  0  0  0  0
  149.7823  137.0079  159.2232 C   0  0  0  0  0  0  0  0  0  0  0  0
  149.6029  138.0675  159.8279 O   0  0  0  0  0  0  0  0  0  0  0  0
  150.6849  136.9445  158.2341 N   0  0  0  0  0  0  0  0  0  0  0  0
  151.5442  138.0335  157.7710 C   0  0  2  0  0  0  0  0  0  0  0  0
  150.7047  139.2806  157.4499 C   0  0  0  0  0  0  0  0  0  0  0  0
  152.3895  137.5741  156.5654 C   0  0  1  0  0  0  0  0  0  0  0  0
  151.5786  137.2946  155.2871 C   0  0  0  0  0  0  0  0  0  0  0  0
  152.0554  138.3537  154.3126 C   0  0  0  0  0  0  0  0  0  0  0  0
  153.4695  138.6239  154.8032 C   0  0  0  0  0  0  0  0  0  0  0  0
  153.3325  138.5870  156.2142 O   0  0  0  0  0  0  0  0  0  0  0  0
  147.1091  134.3645  160.5738 S   0  0  0  0  0  0  0  0  0  0  0  0
  141.6673  135.5647  162.8598 H   0  0  0  0  0  0  0  0  0  0  0  0
  142.7728  135.0606  164.1353 H   0  0  0  0  0  0  0  0  0  0  0  0
  142.3885  133.9584  162.8130 H   0  0  0  0  0  0  0  0  0  0  0  0
  143.5118  135.5261  161.1948 H   0  0  0  0  0  0  0  0  0  0  0  0
  143.8966  136.6121  162.5080 H   0  0  0  0  0  0  0  0  0  0  0  0
  145.3183  134.8296  163.5686 H   0  0  0  0  0  0  0  0  0  0  0  0
  144.9309  133.7385  162.2583 H   0  0  0  0  0  0  0  0  0  0  0  0
  150.7937  136.0564  157.7666 H   0  0  0  0  0  0  0  0  0  0  0  0
  152.2411  138.2978  158.5683 H   0  0  0  0  0  0  0  0  0  0  0  0
  151.3377  140.1045  157.1203 H   0  0  0  0  0  0  0  0  0  0  0  0
  150.1538  139.6210  158.3273 H   0  0  0  0  0  0  0  0  0  0  0  0
  149.9799  139.0801  156.6604 H   0  0  0  0  0  0  0  0  0  0  0  0
  152.9426  136.6723  156.8321 H   0  0  0  0  0  0  0  0  0  0  0  0
  151.8233  136.3025  154.9061 H   0  0  0  0  0  0  0  0  0  0  0  0
  150.4990  137.3304  155.4384 H   0  0  0  0  0  0  0  0  0  0  0  0
  152.0169  138.0289  153.2727 H   0  0  0  0  0  0  0  0  0  0  0  0
  151.4481  139.2542  154.4137 H   0  0  0  0  0  0  0  0  0  0  0  0
  154.1516  137.8356  154.4811 H   0  0  0  0  0  0  0  0  0  0  0  0
  153.8605  139.5826  154.4618 H   0  0  0  0  0  0  0  0  0  0  0  0
  1  2  1  0  0  0  0
  1 20  1  0  0  0  0
  1 21  1  0  0  0  0
  1 22  1  0  0  0  0
  2  3  1  0  0  0  0
  2 23  1  0  0  0  0
  2 24  1  0  0  0  0
  3  4  1  0  0  0  0
  3 25  1  0  0  0  0
  3 26  1  0  0  0  0
  4 19  1  0  0  0  0
  4  5  2  0  0  0  0
  5  6  1  0  0  0  0
  6  7  2  0  0  0  0
  7  8  1  0  0  0  0
  7 19  1  0  0  0  0
  8  9  1  0  0  0  0
  9 10  2  0  0  0  0
  9 11  1  0  0  0  0
 11 12  1  0  0  0  0
 11 27  1  0  0  0  0
 12 13  1  0  0  0  0
 12 14  1  0  0  0  0
 12 28  1  0  0  0  0
 13 29  1  0  0  0  0
 13 30  1  0  0  0  0
 13 31  1  0  0  0  0
 14 18  1  0  0  0  0
 14 15  1  0  0  0  0
 14 32  1  0  0  0  0
 15 16  1  0  0  0  0
 15 33  1  0  0  0  0
 15 34  1  0  0  0  0
 16 17  1  0  0  0  0
 16 35  1  0  0  0  0
 16 36  1  0  0  0  0
 17 18  1  0  0  0  0
 17 37  1  0  0  0  0
 17 38  1  0  0  0  0
M  CHG  1   8  -1
M  END
> <s_m_source_file>
AV-unprocessed.smi

> <i_m_source_file_index>
1251

> <i_lp_mmshare_version>
43012

> <i_f3d_flags>
0

> <s_epik_input>
W0NIM11bQ0gyXVtDSDJdYzFubmMoczEpW05IXUMoPU8pW05IXVtDQEhdKFtDSDNdKVtDQEBIXTJbQ0gyXVtDSDJdW0NIMl1PMg==

> <s_epik_cmdline>
J2VwaWtfcHl0aG9uJywgJy1waCcsICc3LjAnLCAnLXRuJywgJzgnLCAnLW1hJywgJzIwMCcsICctbWV0YWxfYmluZGluZycsICctaW1hZScsICc8aW5maWxlLm1hZT4nLCAnLW9tYWUnLCAnPG91dGZpbGUubWFlPic=

> <r_lp_tautomer_probability>
1

> <r_epik_Ionization_Penalty>
4.22551

> <r_epik_Ionization_Penalty_Charging>
4.21437

> <r_epik_Ionization_Penalty_Neutral>
0.0111434

> <r_epik_State_Penalty>
4.21389

> <r_epik_Charging_Adjusted_Penalty>
8.42826

> <i_epik_Tot_Q>
-1

> <i_epik_Tot_abs_Q>
1

> <r_epik_Metal_State_Penalty>
0.69377

> <b_epik_Metal_Only>
1

> <s_lp_Force_Field>
OPLS_2005

> <r_lp_Energy>
12.7313

> <b_lp_Chiralities_Consistent>
1

> <s_lp_Variant>
AV-unprocessed.smi:1251-7

> <Gold.Version>
5.8.1

> <Gold.Id.Protein>
6NUR|6NUR_protein|mol2

> <Gold.PLP.Fitness>
42.5150

> <Gold.PLP.PLP>
-29.0805

> <Gold.PLP.part.hbond>
-5.9072

> <Gold.PLP.part.metal>
0.0000

> <Gold.PLP.part.buried>
-3.3070

> <Gold.PLP.part.nonpolar>
-20.2723

> <Gold.PLP.part.repulsive>
0.1010

> <Gold.PLP.ligand.clash>
0.0000

> <Gold.PLP.ligand.torsion>
0.0864

> <Gold.PLP.Chemscore.Hbond>
4.4980

> <Gold.PLP.Chemscore.CHOScore>
0.0000

> <Gold.PLP.Chemscore.Metal>
0.0000

> <Gold.Chemscore.Hbonds>
donor molecule, donor type, donor heavy atom, donor atom, acceptor molecule, acceptor atom, score
      P1  H  6896  6908       L1     8  1.60
      P1  H  6931  6943       L1     6  0.88
      P1  H  6934  6947       L1     6  0.22
      P1  H  7997  8008       L1    18  0.52

> <Gold.PLP.Chemscore.Internal.Correction>
0.1135

> <Gold.Rescore>
     Score         DG    S(hbond)    S(metal)    S(lipo)     H(rot)  DE(clash)    DE(int)     intcor
     13.57     -17.96       2.40        0.00      71.94       1.55       1.35       3.04       ----

> <Gold.Chemscore.Fitness>
13.5745

> <Gold.Chemscore.DG>
-17.9590

> <Gold.Chemscore.ZeroCoef>
-5.4800

> <Gold.Chemscore.Hbond>
2.4020

> <Gold.Chemscore.Metal>
0.0000

> <Gold.Chemscore.Lipo>
71.9352

> <Gold.Chemscore.Internal_Hbond>
0.0000

> <Gold.Chemscore.DEClash>
1.3476

> <Gold.Chemscore.DEInternal>
3.0368

> <Gold.Chemscore.Rot>
1.5469

> <Gold.Chemscore.Internal.Correction>
   9.000000E+99

> <Gold.Chemscore.Hbonds>
donor molecule, donor type, donor heavy atom, donor atom, acceptor molecule, acceptor atom, score
      P1  H  6896  6908       L1     8  0.12
      P1  H  6931  6943       L1     6  0.68
      P1  H  6934  6947       L1     6  0.01
      P1  H  7997  8008       L1    18  0.03

> <Gold.Chemscore.Hbond.Weighted>
-8.0226

> <Gold.Chemscore.Metal.Weighted>
-0.0000

> <Gold.Chemscore.Lipo.Weighted>
-8.4164

> <Gold.Chemscore.Internal_Hbond.Weighted>
0.0000

> <Gold.Chemscore.DEClash.Weighted>
1.3476

> <Gold.Chemscore.DEInternal.Weighted>
3.0368

> <Gold.Chemscore.Rot.Weighted>
3.9600

> <Gold.Chemscore.Internal.Correction.Weighted>
   9.000000E+99

> <Gold.Protein.RotatedTorsions>
[ 6907 6896 6895 6894 ] final -176.65 input  -60.11 | X-H torsion
[ 7974 7965 7964 7962 ] final  164.81 input  175.53 | X-H torsion
[ 8008 7997 7996 7995 ] final  -45.71 input   59.86 | X-H torsion
[ 10167 10162 10161 10158 ] final  137.98 input  -65.29 | X-H torsion
[ 10718 10713 10712 10709 ] final  -48.14 input   66.30 | X-H torsion
[ 10763 10752 10751 10750 ] final   94.67 input  -60.55 | X-H torsion
[ 11005 11000 10999 10996 ] final   33.91 input  -57.11 | X-H torsion

> <Gold.Protein.ActiveResidues>
 VAL166  LYS551  ARG553  GLY616  TRP617  ASP618  TYR619  PRO620  LYS621  CYS622 
 ASP623  PHE694  ASN695  SER759  ASP760  ASP761  ALA762  ILE779  LEU786  VAL792 
 PHE793  MET794  SER795  GLU796  ALA797  LYS798  CYS799  TRP800  GLU811  SER814 

> <Gold.Protein.RotatedAtoms>
  151.6082  133.3350  159.3061 H   0  0  0  0  0  0  0  0  0  0  0  0  # atno 6907 bound_to 6896
  150.8171  134.7362  159.6751 H   0  0  0  0  0  0  0  0  0  0  0  0  # atno 6908 bound_to 6896
  152.4266  134.5862  160.0013 H   0  0  0  0  0  0  0  0  0  0  0  0  # atno 6909 bound_to 6896
  144.7529  139.8379  143.6360 H   0  0  0  0  0  0  0  0  0  0  0  0  # atno 7974 bound_to 7965
  154.4002  140.1390  156.3891 H   0  0  0  0  0  0  0  0  0  0  0  0  # atno 8008 bound_to 7997
  155.7931  140.3478  155.5340 H   0  0  0  0  0  0  0  0  0  0  0  0  # atno 8009 bound_to 7997
  155.8559  140.0949  157.1635 H   0  0  0  0  0  0  0  0  0  0  0  0  # atno 8010 bound_to 7997
  139.5126  144.6379  151.5647 H   0  0  0  0  0  0  0  0  0  0  0  0  # atno 10167 bound_to 10162
  156.2017  130.4156  149.9232 H   0  0  0  0  0  0  0  0  0  0  0  0  # atno 10718 bound_to 10713
  153.2443  135.4281  155.0731 H   0  0  0  0  0  0  0  0  0  0  0  0  # atno 10763 bound_to 10752
  154.8354  135.3410  154.6603 H   0  0  0  0  0  0  0  0  0  0  0  0  # atno 10764 bound_to 10752
  153.7026  135.7027  153.5115 H   0  0  0  0  0  0  0  0  0  0  0  0  # atno 10765 bound_to 10752
  140.2583  134.3222  155.7866 H   0  0  0  0  0  0  0  0  0  0  0  0  # atno 11005 bound_to 11000
  146.1503  139.4584  143.0053 LP  0  0  0  0  0  0  0  0  0  0  0  0  # atno 17320 bound_to 7965
  145.6880  141.0172  143.1571 LP  0  0  0  0  0  0  0  0  0  0  0  0  # atno 17321 bound_to 7965
  140.6135  143.9392  150.6471 LP  0  0  0  0  0  0  0  0  0  0  0  0  # atno 17342 bound_to 10162
  140.2642  143.3502  152.1296 LP  0  0  0  0  0  0  0  0  0  0  0  0  # atno 17343 bound_to 10162
  156.6940  130.8907  151.3591 LP  0  0  0  0  0  0  0  0  0  0  0  0  # atno 17370 bound_to 10713
  157.6989  130.9312  150.0726 LP  0  0  0  0  0  0  0  0  0  0  0  0  # atno 17371 bound_to 10713
  141.2193  133.7394  156.9146 LP  0  0  0  0  0  0  0  0  0  0  0  0  # atno 17394 bound_to 11000
  140.1490  134.9243  157.2567 LP  0  0  0  0  0  0  0  0  0  0  0  0  # atno 17395 bound_to 11000

$$$$
