#       Name:                AV-unprocessed.smi:1351
#       Creating user name   scv26
#       Creation time:       Fri Mar 27 05:11:43 2020


#       File generated by GOLD software.
#

@<TRIPOS>MOLECULE
AV-unprocessed.smi:1351
    39    40     1
SMALL
NO_CHARGES


@<TRIPOS>ATOM
      1 ****        -5.1695  -0.3846  -0.2907 C.3            1 S1                 0.0000
      2 ****        -4.3731   0.3595   0.6790 N.pl3          1 S1                 0.0000
      3 ****        -5.0040   0.9366   1.8588 C.3            1 S1                 0.0000
      4 ****        -2.9696   0.4169   0.5360 C.ar           1 S1                 0.0000
      5 ****        -2.1214   1.0728   1.4618 C.ar           1 S1                 0.0000
      6 ****        -0.7269   1.0809   1.2525 C.ar           1 S1                 0.0000
      7 ****        -0.1833   0.4462   0.1165 C.ar           1 S1                 0.0000
      8 ****         1.2289   0.4610  -0.0405 N.am           1 S1                 0.0000
      9 ****         1.9573   0.2290  -1.1494 C.2            1 S1                 0.0000
     10 ****         1.4756   0.0317  -2.2646 O.2            1 S1                 0.0000
     11 ****         3.4849   0.2728  -0.9872 C.3            1 S1                 0.0000
     12 ****         4.2302  -0.8681  -1.7077 C.3            1 S1                 0.0000
     13 ****         5.0120  -1.5571  -0.6022 C.3            1 S1                 0.0000
     14 ****         5.1129  -0.4739   0.4622 C.3            1 S1                 0.0000
     15 ****         3.8391   0.1425   0.3898 O.3            1 S1                 0.0000
     16 ****        -1.0705  -0.2011  -0.7757 C.ar           1 S1                 0.0000
     17 ****        -2.3993  -0.1873  -0.5351 N.pl3          1 S1                 1.0000
     18 ****        -4.8753  -1.4346  -0.3027 H              1 S1                 0.0000
     19 ****        -5.0365   0.0256  -1.2922 H              1 S1                 0.0000
     20 ****        -6.2319  -0.3378  -0.0512 H              1 S1                 0.0000
     21 ****        -4.8173   2.0097   1.9065 H              1 S1                 0.0000
     22 ****        -4.6163   0.4733   2.7665 H              1 S1                 0.0000
     23 ****        -6.0837   0.7877   1.8444 H              1 S1                 0.0000
     24 ****        -2.5170   1.5699   2.3348 H              1 S1                 0.0000
     25 ****        -0.0810   1.5769   1.9624 H              1 S1                 0.0000
     26 ****         1.7582   0.7026   0.7853 H              1 S1                 0.0000
     27 ****         3.8495   1.2356  -1.3482 H              1 S1                 0.0000
     28 ****         3.5754  -1.5743  -2.2203 H              1 S1                 0.0000
     29 ****         4.9100  -0.4533  -2.4528 H              1 S1                 0.0000
     30 ****         4.4410  -2.4017  -0.2142 H              1 S1                 0.0000
     31 ****         5.9842  -1.9250  -0.9309 H              1 S1                 0.0000
     32 ****         5.3132  -0.8748   1.4560 H              1 S1                 0.0000
     33 ****         5.8899   0.2510   0.2147 H              1 S1                 0.0000
     34 ****        -0.7776  -0.7420  -1.6627 H              1 S1                 0.0000
     35 ****        -3.0094  -0.6649  -1.1987 H              1 S1                 0.0000
     36 ****         0.4834   0.0375  -2.3888 LP             1 S1                 0.0000
     37 ****         2.0765  -0.1345  -3.0465 LP             1 S1                 0.0000
     38 ****         3.1622  -0.4225   0.8616 LP             1 S1                 0.0000
     39 ****         3.8753   1.0458   0.8171 LP             1 S1                 0.0000
@<TRIPOS>BOND
    1    1    2 1     
    2    1   18 1     
    3    1   19 1     
    4    1   20 1     
    5    2    3 1     
    6    2    4 1     
    7    3   21 1     
    8    3   22 1     
    9    3   23 1     
   10    4   17 ar    
   11    4    5 ar    
   12    5    6 ar    
   13    5   24 1     
   14    6    7 ar    
   15    6   25 1     
   16    7    8 1     
   17    7   16 ar    
   18    8    9 am    
   19    8   26 1     
   20    9   10 2     
   21    9   11 1     
   22   11   15 1     
   23   11   12 1     
   24   11   27 1     
   25   12   13 1     
   26   12   28 1     
   27   12   29 1     
   28   13   14 1     
   29   13   30 1     
   30   13   31 1     
   31   14   15 1     
   32   14   32 1     
   33   14   33 1     
   34   16   17 ar    
   35   16   34 1     
   36   17   35 1     
   37   10   36 1     
   38   10   37 1     
   39   15   38 1     
   40   15   39 1     
@<TRIPOS>SUBSTRUCTURE
      1 S1             1
@<TRIPOS>SET
LONE_PAIRS      STATIC     ATOMS    <user>   **** ""
4 36 37 38 39
DONOR_HYDROGENS      STATIC     ATOMS    <user>   **** ""
2 26 35
ATOM$BLUE        STATIC     ATOMS    COLORGROUP SYSTEM
4 36 37 38 39
ATOM$RED        STATIC     ATOMS    COLORGROUP SYSTEM
2 26 35
