#       Name:                AV-unprocessed.smi:193
#       Creating user name   scv26
#       Creation time:       Thu Mar 26 19:34:20 2020


#       File generated by GOLD software.
#

@<TRIPOS>MOLECULE
AV-unprocessed.smi:193
    70    74     1
SMALL
NO_CHARGES


@<TRIPOS>ATOM
      1 ****        -3.4558  -3.5149   1.5016 C.3            1 S1                 0.0000
      2 ****        -3.0522  -2.4171   0.5047 C.3            1 S1                 0.0000
      3 ****        -1.5301  -2.1819   0.6002 C.3            1 S1                 0.0000
      4 ****        -0.9890  -1.3437  -0.4660 N.3            1 S1                 0.0000
      5 ****         0.3605  -1.3261  -0.4583 C.ar           1 S1                 0.0000
      6 ****         1.0013  -2.0038  -1.4414 N.ar           1 S1                 0.0000
      7 ****         2.3378  -2.0183  -1.4767 C.ar           1 S1                 0.0000
      8 ****         3.2023  -1.4337  -0.6436 N.ar           1 S1                 0.0000
      9 ****         2.5563  -0.7530   0.3467 C.ar           1 S1                 0.0000
     10 ****         1.1475  -0.6479   0.5131 C.ar           1 S1                 0.0000
     11 ****         0.8549   0.1219   1.6324 N.2            1 S1                 0.0000
     12 ****         2.0270   0.4542   2.1015 C.2            1 S1                 0.0000
     13 ****         3.1032  -0.0215   1.3864 N.pl3          1 S1                 0.0000
     14 ****         4.5105   0.2016   1.6802 C.3            1 S1                 0.0000
     15 ****         5.0614   1.5371   1.1226 C.3            1 S1                 0.0000
     16 ****         4.3839   2.5910   1.7859 O.3            1 S1                 0.0000
     17 ****         6.5687   1.6647   1.4201 C.3            1 S1                 0.0000
     18 ****         7.1908   2.8983   0.7417 C.3            1 S1                 0.0000
     19 ****         6.9417   2.8622  -0.6583 O.3            1 S1                 0.0000
     20 ****         5.5556   2.9173  -0.9730 C.3            1 S1                 0.0000
     21 ****         4.8316   1.6874  -0.3973 C.3            1 S1                 0.0000
     22 ****        -1.5746  -0.0255  -0.6902 C.3            1 S1                 0.0000
     23 ****        -2.9564  -0.1353  -1.3523 C.3            1 S1                 0.0000
     24 ****        -4.0824  -0.2522  -0.3902 N.4            1 S1                 1.0000
     25 ****        -5.3505  -0.5855  -1.0782 C.3            1 S1                 0.0000
     26 ****        -6.5692   0.0270  -0.4276 C.3            1 S1                 0.0000
     27 ****        -6.0346   0.6007  -1.7222 C.3            1 S1                 0.0000
     28 ****        -6.8149   0.4342  -3.0075 C.3            1 S1                 0.0000
     29 ****        -3.8445  -1.1206   0.7954 C.3            1 S1                 0.0000
     30 ****        -3.2443  -3.2160   2.5290 H              1 S1                 0.0000
     31 ****        -2.9161  -4.4422   1.3073 H              1 S1                 0.0000
     32 ****        -4.5207  -3.7396   1.4321 H              1 S1                 0.0000
     33 ****        -3.3025  -2.7918  -0.4887 H              1 S1                 0.0000
     34 ****        -1.2814  -1.7491   1.5703 H              1 S1                 0.0000
     35 ****        -1.0219  -3.1469   0.5572 H              1 S1                 0.0000
     36 ****         2.7783  -2.5788  -2.2884 H              1 S1                 0.0000
     37 ****         2.1414   1.0658   2.9850 H              1 S1                 0.0000
     38 ****         4.6441   0.1575   2.7621 H              1 S1                 0.0000
     39 ****         5.0781  -0.6354   1.2718 H              1 S1                 0.0000
     40 ****         4.7217   3.4133   1.4652 H              1 S1                 0.0000
     41 ****         6.7460   1.6992   2.4959 H              1 S1                 0.0000
     42 ****         7.0846   0.7756   1.0550 H              1 S1                 0.0000
     43 ****         6.7997   3.8228   1.1691 H              1 S1                 0.0000
     44 ****         8.2685   2.9084   0.9049 H              1 S1                 0.0000
     45 ****         5.1213   3.8427  -0.5917 H              1 S1                 0.0000
     46 ****         5.4434   2.9407  -2.0571 H              1 S1                 0.0000
     47 ****         5.2042   0.7971  -0.9056 H              1 S1                 0.0000
     48 ****         3.7674   1.7485  -0.6279 H              1 S1                 0.0000
     49 ****        -1.6221   0.5457   0.2377 H              1 S1                 0.0000
     50 ****        -0.9205   0.5345  -1.3614 H              1 S1                 0.0000
     51 ****        -3.1325   0.7650  -1.9418 H              1 S1                 0.0000
     52 ****        -2.9683  -0.9634  -2.0634 H              1 S1                 0.0000
     53 ****        -5.4080  -1.5748  -1.5296 H              1 S1                 0.0000
     54 ****        -7.4976  -0.5390  -0.4724 H              1 S1                 0.0000
     55 ****        -6.4298   0.6169   0.4766 H              1 S1                 0.0000
     56 ****        -5.5330   1.5637  -1.6407 H              1 S1                 0.0000
     57 ****        -7.2961  -0.5438  -3.0441 H              1 S1                 0.0000
     58 ****        -6.1469   0.5253  -3.8643 H              1 S1                 0.0000
     59 ****        -7.5843   1.2029  -3.0816 H              1 S1                 0.0000
     60 ****        -4.8099  -1.3603   1.2436 H              1 S1                 0.0000
     61 ****        -3.3249  -0.5349   1.5547 H              1 S1                 0.0000
     62 ****        -4.2172   0.6740  -0.0106 H              1 S1                 0.0000
     63 ****        -1.3091  -1.8235  -1.2829 LP             1 S1                 0.0000
     64 ****         0.4760  -2.4917  -2.1385 LP             1 S1                 0.0000
     65 ****         4.1967  -1.4879  -0.7340 LP             1 S1                 0.0000
     66 ****        -0.0450   0.3650   1.9946 LP             1 S1                 0.0000
     67 ****         4.5389   2.5240   2.7716 LP             1 S1                 0.0000
     68 ****         3.4034   2.5328   1.5980 LP             1 S1                 0.0000
     69 ****         7.3199   2.0137  -1.0283 LP             1 S1                 0.0000
     70 ****         7.3974   3.6438  -1.0842 LP             1 S1                 0.0000
@<TRIPOS>BOND
    1    1    2 1     
    2    1   30 1     
    3    1   31 1     
    4    1   32 1     
    5    2   29 1     
    6    2    3 1     
    7    2   33 1     
    8    3    4 1     
    9    3   34 1     
   10    3   35 1     
   11    4    5 1     
   12    4   22 1     
   13    5   10 ar    
   14    5    6 ar    
   15    6    7 ar    
   16    7    8 ar    
   17    7   36 1     
   18    8    9 ar    
   19    9   13 1     
   20    9   10 ar    
   21   10   11 1     
   22   11   12 2     
   23   12   13 1     
   24   12   37 1     
   25   13   14 1     
   26   14   15 1     
   27   14   38 1     
   28   14   39 1     
   29   15   21 1     
   30   15   16 1     
   31   15   17 1     
   32   16   40 1     
   33   17   18 1     
   34   17   41 1     
   35   17   42 1     
   36   18   19 1     
   37   18   43 1     
   38   18   44 1     
   39   19   20 1     
   40   20   21 1     
   41   20   45 1     
   42   20   46 1     
   43   21   47 1     
   44   21   48 1     
   45   22   23 1     
   46   22   49 1     
   47   22   50 1     
   48   23   24 1     
   49   23   51 1     
   50   23   52 1     
   51   24   25 1     
   52   24   29 1     
   53   24   62 1     
   54   25   27 1     
   55   25   26 1     
   56   25   53 1     
   57   26   27 1     
   58   26   54 1     
   59   26   55 1     
   60   27   28 1     
   61   27   56 1     
   62   28   57 1     
   63   28   58 1     
   64   28   59 1     
   65   29   60 1     
   66   29   61 1     
   67    4   63 1     
   68    6   64 1     
   69    8   65 1     
   70   11   66 1     
   71   16   67 1     
   72   16   68 1     
   73   19   69 1     
   74   19   70 1     
@<TRIPOS>SUBSTRUCTURE
      1 S1             1
@<TRIPOS>SET
LONE_PAIRS      STATIC     ATOMS    <user>   **** ""
8 63 64 65 66 67 68 69 70
DONOR_HYDROGENS      STATIC     ATOMS    <user>   **** ""
2 40 62
ATOM$BLUE        STATIC     ATOMS    COLORGROUP SYSTEM
8 63 64 65 66 67 68 69 70
ATOM$RED        STATIC     ATOMS    COLORGROUP SYSTEM
2 40 62
