AV-unprocessed.smi:1692|AV-procd|sdf|6782|dock6
  -GOLD-   22720 7543D 1   1.00000     0.00000
 Structure written by MMmdl.
 45 46  0  0  0  0  0  0  0  0  1 V2000
  151.6974  138.0087  154.2280 C   0  0  0  0  0  0  0  0  0  0  0  0
  150.8048  138.9519  155.0417 C   0  0  2  0  0  0  0  0  0  0  0  0
  149.3842  139.0525  154.4581 C   0  0  0  0  0  0  0  0  0  0  0  0
  148.5600  140.0093  155.1858 N   0  0  0  0  0  0  0  0  0  0  0  0
  147.2062  140.0538  154.6352 C   0  0  0  0  0  0  0  0  0  0  0  0
  147.1078  139.8190  153.1181 C   0  0  0  0  0  0  0  0  0  0  0  0
  145.9190  138.9161  152.7521 C   0  0  0  0  0  0  0  0  0  0  0  0
  146.3604  137.6092  152.2784 N   0  0  0  0  0  0  0  0  0  0  0  0
  145.5675  136.5396  152.1187 C   0  0  0  0  0  0  0  0  0  0  0  0
  144.3585  136.5506  152.3525 O   0  0  0  0  0  0  0  0  0  0  0  0
  146.2657  135.4787  151.6767 N   0  0  0  0  0  0  0  0  0  0  0  0
  145.7929  134.1670  151.4043 C   0  0  0  0  0  0  0  0  0  0  0  0
  144.4106  134.0759  151.1236 C   0  0  0  0  0  0  0  0  0  0  0  0
  143.8428  132.8191  150.8381 C   0  0  0  0  0  0  0  0  0  0  0  0
  144.6729  131.6841  150.8405 C   0  0  0  0  0  0  0  0  0  0  0  0
  146.0384  131.8617  151.1302 C   0  0  0  0  0  0  0  0  0  0  0  0
  146.5847  133.0653  151.4042 N   0  0  0  0  0  0  0  0  0  0  0  0
  149.2177  141.3142  155.1653 C   0  0  0  0  0  0  0  0  0  0  0  0
  150.6617  141.2648  155.7050 C   0  0  1  0  0  0  0  0  0  0  0  0
  150.7359  141.1191  157.2344 C   0  0  0  0  0  0  0  0  0  0  0  0
  151.4079  140.2445  155.0397 O   0  0  0  0  0  0  0  0  0  0  0  0
  151.2834  137.0005  154.2035 H   0  0  0  0  0  0  0  0  0  0  0  0
  152.6959  137.9471  154.6612 H   0  0  0  0  0  0  0  0  0  0  0  0
  151.8015  138.3535  153.1988 H   0  0  0  0  0  0  0  0  0  0  0  0
  150.7531  138.5767  156.0642 H   0  0  0  0  0  0  0  0  0  0  0  0
  149.4412  139.3399  153.4068 H   0  0  0  0  0  0  0  0  0  0  0  0
  148.9160  138.0679  154.4859 H   0  0  0  0  0  0  0  0  0  0  0  0
  146.5714  139.3363  155.1575 H   0  0  0  0  0  0  0  0  0  0  0  0
  146.7794  141.0362  154.8424 H   0  0  0  0  0  0  0  0  0  0  0  0
  147.0089  140.7796  152.6107 H   0  0  0  0  0  0  0  0  0  0  0  0
  148.0245  139.3622  152.7455 H   0  0  0  0  0  0  0  0  0  0  0  0
  145.2888  138.7611  153.6281 H   0  0  0  0  0  0  0  0  0  0  0  0
  145.2904  139.3959  152.0000 H   0  0  0  0  0  0  0  0  0  0  0  0
  147.3416  137.5120  152.0625 H   0  0  0  0  0  0  0  0  0  0  0  0
  147.2526  135.6239  151.5243 H   0  0  0  0  0  0  0  0  0  0  0  0
  143.7870  134.9583  151.1255 H   0  0  0  0  0  0  0  0  0  0  0  0
  142.7887  132.7286  150.6210 H   0  0  0  0  0  0  0  0  0  0  0  0
  144.2747  130.7034  150.6262 H   0  0  0  0  0  0  0  0  0  0  0  0
  146.7100  131.0162  151.1427 H   0  0  0  0  0  0  0  0  0  0  0  0
  149.2382  141.6914  154.1417 H   0  0  0  0  0  0  0  0  0  0  0  0
  148.6498  142.0382  155.7485 H   0  0  0  0  0  0  0  0  0  0  0  0
  151.1445  142.2093  155.4532 H   0  0  0  0  0  0  0  0  0  0  0  0
  150.2609  141.9671  157.7276 H   0  0  0  0  0  0  0  0  0  0  0  0
  151.7721  141.0791  157.5709 H   0  0  0  0  0  0  0  0  0  0  0  0
  150.2352  140.2171  157.5851 H   0  0  0  0  0  0  0  0  0  0  0  0
  1  2  1  0  0  0  0
  1 22  1  0  0  0  0
  1 23  1  0  0  0  0
  1 24  1  0  0  0  0
  2 21  1  0  0  0  0
  2  3  1  0  0  0  0
  2 25  1  0  0  0  0
  3  4  1  0  0  0  0
  3 26  1  0  0  0  0
  3 27  1  0  0  0  0
  4  5  1  0  0  0  0
  4 18  1  0  0  0  0
  5  6  1  0  0  0  0
  5 28  1  0  0  0  0
  5 29  1  0  0  0  0
  6  7  1  0  0  0  0
  6 30  1  0  0  0  0
  6 31  1  0  0  0  0
  7  8  1  0  0  0  0
  7 32  1  0  0  0  0
  7 33  1  0  0  0  0
  8  9  1  0  0  0  0
  8 34  1  0  0  0  0
  9 10  2  0  0  0  0
  9 11  1  0  0  0  0
 11 12  1  0  0  0  0
 11 35  1  0  0  0  0
 12 17  1  0  0  0  0
 12 13  2  0  0  0  0
 13 14  1  0  0  0  0
 13 36  1  0  0  0  0
 14 15  2  0  0  0  0
 14 37  1  0  0  0  0
 15 16  1  0  0  0  0
 15 38  1  0  0  0  0
 16 17  2  0  0  0  0
 16 39  1  0  0  0  0
 18 19  1  0  0  0  0
 18 40  1  0  0  0  0
 18 41  1  0  0  0  0
 19 20  1  0  0  0  0
 19 21  1  0  0  0  0
 19 42  1  0  0  0  0
 20 43  1  0  0  0  0
 20 44  1  0  0  0  0
 20 45  1  0  0  0  0
M  END
> <s_m_source_file>
AV-unprocessed.smi

> <i_m_source_file_index>
1692

> <i_lp_mmshare_version>
43012

> <i_f3d_flags>
0

> <s_epik_input>
W0NIM11bQ0BASF0xW0NIMl1OKFtDSDJdW0NASF0oTzEpW0NIM10pW0NIMl1bQ0gyXVtDSDJdW05IXUMoPU8pW05IXWMyW2NIXVtjSF1bY0hdW2NIXW4y

> <s_epik_cmdline>
J2VwaWtfcHl0aG9uJywgJy1waCcsICc3LjAnLCAnLXRuJywgJzgnLCAnLW1hJywgJzIwMCcsICctbWV0YWxfYmluZGluZycsICctaW1hZScsICc8aW5maWxlLm1hZT4nLCAnLW9tYWUnLCAnPG91dGZpbGUubWFlPic=

> <r_epik_Ionization_Penalty>
0.594711

> <r_epik_Ionization_Penalty_Charging>
0

> <r_epik_Ionization_Penalty_Neutral>
0.594711

> <r_epik_State_Penalty>
0.608529

> <r_epik_Charging_Adjusted_Penalty>
0.608529

> <i_epik_Tot_Q>
0

> <i_epik_Tot_abs_Q>
0

> <r_epik_Metal_State_Penalty>
0.608528

> <b_epik_Metal_Only>
0

> <s_lp_Force_Field>
OPLS_2005

> <r_lp_Energy>
25.8915

> <b_lp_Chiralities_Consistent>
1

> <s_lp_Variant>
AV-unprocessed.smi:1692-5

> <Gold.Version>
5.8.1

> <Gold.Id.Protein>
6NUR|6NUR_protein|mol2

> <Gold.PLP.Fitness>
45.9780

> <Gold.PLP.PLP>
-36.5106

> <Gold.PLP.part.hbond>
-3.0000

> <Gold.PLP.part.metal>
0.0000

> <Gold.PLP.part.buried>
-3.1670

> <Gold.PLP.part.nonpolar>
-32.9438

> <Gold.PLP.part.repulsive>
1.5972

> <Gold.PLP.ligand.clash>
0.0000

> <Gold.PLP.ligand.torsion>
1.1712

> <Gold.PLP.Chemscore.Hbond>
2.9600

> <Gold.PLP.Chemscore.CHOScore>
0.9644

> <Gold.PLP.Chemscore.Metal>
0.0000

> <Gold.Chemscore.Hbonds>
donor molecule, donor type, donor heavy atom, donor atom, acceptor molecule, acceptor atom, score
      L1  H     8    34       P1  7948  0.91
      L1  H    11    35       P1  7948  1.00
      P1  H  7989  7998       L1    21  1.00
      L1  C    16    39       P1 10747  0.98

> <Gold.PLP.Chemscore.Internal.Correction>
0.0366

> <Gold.Rescore>
     Score         DG    S(hbond)    S(metal)    S(lipo)     H(rot)  DE(clash)    DE(int)     intcor
     16.06     -19.93       2.46        0.00      90.97       1.73       1.28       2.59       ----

> <Gold.Chemscore.Fitness>
16.0609

> <Gold.Chemscore.DG>
-19.9325

> <Gold.Chemscore.ZeroCoef>
-5.4800

> <Gold.Chemscore.Hbond>
2.4637

> <Gold.Chemscore.Metal>
0.0000

> <Gold.Chemscore.Lipo>
90.9733

> <Gold.Chemscore.Internal_Hbond>
0.0000

> <Gold.Chemscore.DEClash>
1.2837

> <Gold.Chemscore.DEInternal>
2.5879

> <Gold.Chemscore.Rot>
1.7266

> <Gold.Chemscore.Internal.Correction>
   9.000000E+99

> <Gold.Chemscore.Hbonds>
donor molecule, donor type, donor heavy atom, donor atom, acceptor molecule, acceptor atom, score
      L1  H     8    34       P1  7948  0.84
      L1  H    11    35       P1  7948  0.98
      P1  H  7989  7998       L1    21  0.34

> <Gold.Chemscore.Hbond.Weighted>
-8.2287

> <Gold.Chemscore.Metal.Weighted>
-0.0000

> <Gold.Chemscore.Lipo.Weighted>
-10.6439

> <Gold.Chemscore.Internal_Hbond.Weighted>
0.0000

> <Gold.Chemscore.DEClash.Weighted>
1.2837

> <Gold.Chemscore.DEInternal.Weighted>
2.5879

> <Gold.Chemscore.Rot.Weighted>
4.4200

> <Gold.Chemscore.Internal.Correction.Weighted>
   9.000000E+99

> <Gold.Protein.RotatedTorsions>
[ 6907 6896 6895 6894 ] final   19.06 input  -60.11 | X-H torsion
[ 7974 7965 7964 7962 ] final    6.69 input  175.53 | X-H torsion
[ 8008 7997 7996 7995 ] final  -11.26 input   59.86 | X-H torsion
[ 10167 10162 10161 10158 ] final  125.02 input  -65.29 | X-H torsion
[ 10718 10713 10712 10709 ] final -174.97 input   66.30 | X-H torsion
[ 10763 10752 10751 10750 ] final -161.05 input  -60.55 | X-H torsion
[ 11005 11000 10999 10996 ] final -138.78 input  -57.11 | X-H torsion

> <Gold.Protein.ActiveResidues>
 VAL166  LYS551  ARG553  GLY616  TRP617  ASP618  TYR619  PRO620  LYS621  CYS622 
 ASP623  PHE694  ASN695  SER759  ASP760  ASP761  ALA762  ILE779  LEU786  VAL792 
 PHE793  MET794  SER795  GLU796  ALA797  LYS798  CYS799  TRP800  GLU811  SER814 

> <Gold.Protein.RotatedAtoms>
  151.8750  135.0475  160.0482 H   0  0  0  0  0  0  0  0  0  0  0  0  # atno 6907 bound_to 6896
  152.2558  133.5250  159.5361 H   0  0  0  0  0  0  0  0  0  0  0  0  # atno 6908 bound_to 6896
  150.7099  134.0813  159.3941 H   0  0  0  0  0  0  0  0  0  0  0  0  # atno 6909 bound_to 6896
  146.2433  140.0195  142.8399 H   0  0  0  0  0  0  0  0  0  0  0  0  # atno 7974 bound_to 7965
  154.5480  140.2307  155.8531 H   0  0  0  0  0  0  0  0  0  0  0  0  # atno 8008 bound_to 7997
  156.1921  140.3074  155.9314 H   0  0  0  0  0  0  0  0  0  0  0  0  # atno 8009 bound_to 7997
  155.3126  140.0436  157.3026 H   0  0  0  0  0  0  0  0  0  0  0  0  # atno 8010 bound_to 7997
  139.5709  144.6938  151.3782 H   0  0  0  0  0  0  0  0  0  0  0  0  # atno 10167 bound_to 10162
  156.7929  130.9524  151.3120 H   0  0  0  0  0  0  0  0  0  0  0  0  # atno 10718 bound_to 10713
  154.7337  135.3052  154.8848 H   0  0  0  0  0  0  0  0  0  0  0  0  # atno 10763 bound_to 10752
  153.9683  135.6745  153.4750 H   0  0  0  0  0  0  0  0  0  0  0  0  # atno 10764 bound_to 10752
  153.0942  135.4944  154.8670 H   0  0  0  0  0  0  0  0  0  0  0  0  # atno 10765 bound_to 10752
  140.8583  134.2200  157.4722 H   0  0  0  0  0  0  0  0  0  0  0  0  # atno 11005 bound_to 11000
  145.1254  140.9487  143.4576 LP  0  0  0  0  0  0  0  0  0  0  0  0  # atno 17320 bound_to 7965
  145.0440  139.3236  143.5962 LP  0  0  0  0  0  0  0  0  0  0  0  0  # atno 17321 bound_to 7965
  140.6993  143.7672  150.7377 LP  0  0  0  0  0  0  0  0  0  0  0  0  # atno 17342 bound_to 10162
  140.1177  143.4640  152.2332 LP  0  0  0  0  0  0  0  0  0  0  0  0  # atno 17343 bound_to 10162
  157.6591  130.8950  149.9792 LP  0  0  0  0  0  0  0  0  0  0  0  0  # atno 17370 bound_to 10713
  156.1148  130.3648  149.9987 LP  0  0  0  0  0  0  0  0  0  0  0  0  # atno 17371 bound_to 10713
  139.8706  134.9717  156.4747 LP  0  0  0  0  0  0  0  0  0  0  0  0  # atno 17394 bound_to 11000
  140.8712  133.7987  155.9366 LP  0  0  0  0  0  0  0  0  0  0  0  0  # atno 17395 bound_to 11000

$$$$
