AV-unprocessed.smi:1020|AV-procd|sdf|4453|dock10
  -GOLD-   22720 2423D 1   1.00000     0.00000
 Structure written by MMmdl.
 46 47  0  0  0  0  0  0  0  0  1 V2000
  146.7754  144.0881  161.6097 C   0  0  0  0  0  0  0  0  0  0  0  0
  145.3070  143.9132  161.2065 C   0  0  0  0  0  0  0  0  0  0  0  0
  144.4006  143.7464  162.4360 C   0  0  0  0  0  0  0  0  0  0  0  0
  145.2365  142.7594  160.3794 O   0  0  0  0  0  0  0  0  0  0  0  0
  145.9008  142.8858  159.1297 C   0  0  0  0  0  0  0  0  0  0  0  0
  145.5579  141.6799  158.2458 C   0  0  0  0  0  0  0  0  0  0  0  0
  146.2010  141.7458  156.9000 C   0  0  0  0  0  0  0  0  0  0  0  0
  147.4681  141.4704  156.6012 N   0  0  0  0  0  0  0  0  0  0  0  0
  147.4976  141.7770  155.2746 C   0  0  0  0  0  0  0  0  0  0  0  0
  148.7304  141.6450  154.4375 C   0  0  0  0  0  0  0  0  0  0  0  0
  149.9726  141.5080  155.3203 C   0  0  0  0  0  0  0  0  0  0  0  0
  150.6789  140.5032  155.2370 O   0  0  0  0  0  0  0  0  0  0  0  0
  150.2280  142.5244  156.1601 N   0  0  0  0  0  0  0  0  0  0  0  0
  151.3362  142.5793  157.1077 C   0  0  0  0  0  0  0  0  0  0  0  0
  151.0199  141.7330  158.3583 C   0  0  0  0  0  0  0  0  0  0  0  0
  152.1344  141.8410  159.4110 C   0  0  0  0  0  0  0  0  0  0  0  0
  152.4029  143.3054  159.7907 C   0  0  0  0  0  0  0  0  0  0  0  0
  152.7267  144.1497  158.5480 C   0  0  0  0  0  0  0  0  0  0  0  0
  151.6106  144.0446  157.4959 C   0  0  0  0  0  0  0  0  0  0  0  0
  146.3544  142.2112  154.7556 N   0  0  0  0  0  0  0  0  0  0  0  0
  145.4784  142.2060  155.8505 O   0  0  0  0  0  0  0  0  0  0  0  0
  146.9096  144.9651  162.2432 H   0  0  0  0  0  0  0  0  0  0  0  0
  147.4033  144.2174  160.7290 H   0  0  0  0  0  0  0  0  0  0  0  0
  147.1436  143.2192  162.1561 H   0  0  0  0  0  0  0  0  0  0  0  0
  145.0049  144.7987  160.6446 H   0  0  0  0  0  0  0  0  0  0  0  0
  144.4878  144.6045  163.1030 H   0  0  0  0  0  0  0  0  0  0  0  0
  144.6691  142.8552  163.0042 H   0  0  0  0  0  0  0  0  0  0  0  0
  143.3511  143.6592  162.1563 H   0  0  0  0  0  0  0  0  0  0  0  0
  145.6026  143.8048  158.6252 H   0  0  0  0  0  0  0  0  0  0  0  0
  146.9799  142.9334  159.2853 H   0  0  0  0  0  0  0  0  0  0  0  0
  145.8720  140.7587  158.7379 H   0  0  0  0  0  0  0  0  0  0  0  0
  144.4778  141.6104  158.1138 H   0  0  0  0  0  0  0  0  0  0  0  0
  148.6373  140.7721  153.7899 H   0  0  0  0  0  0  0  0  0  0  0  0
  148.8365  142.5138  153.7863 H   0  0  0  0  0  0  0  0  0  0  0  0
  149.5934  143.3102  156.1579 H   0  0  0  0  0  0  0  0  0  0  0  0
  152.2329  142.1809  156.6287 H   0  0  0  0  0  0  0  0  0  0  0  0
  150.0768  142.0633  158.7965 H   0  0  0  0  0  0  0  0  0  0  0  0
  150.8828  140.6869  158.0816 H   0  0  0  0  0  0  0  0  0  0  0  0
  151.8621  141.2699  160.2990 H   0  0  0  0  0  0  0  0  0  0  0  0
  153.0484  141.3904  159.0216 H   0  0  0  0  0  0  0  0  0  0  0  0
  151.5288  143.7184  160.2957 H   0  0  0  0  0  0  0  0  0  0  0  0
  153.2268  143.3604  160.5029 H   0  0  0  0  0  0  0  0  0  0  0  0
  152.8705  145.1921  158.8342 H   0  0  0  0  0  0  0  0  0  0  0  0
  153.6700  143.8151  158.1142 H   0  0  0  0  0  0  0  0  0  0  0  0
  151.8853  144.6209  156.6117 H   0  0  0  0  0  0  0  0  0  0  0  0
  150.7005  144.4995  157.8904 H   0  0  0  0  0  0  0  0  0  0  0  0
  1  2  1  0  0  0  0
  1 22  1  0  0  0  0
  1 23  1  0  0  0  0
  1 24  1  0  0  0  0
  2  3  1  0  0  0  0
  2  4  1  0  0  0  0
  2 25  1  0  0  0  0
  3 26  1  0  0  0  0
  3 27  1  0  0  0  0
  3 28  1  0  0  0  0
  4  5  1  0  0  0  0
  5  6  1  0  0  0  0
  5 29  1  0  0  0  0
  5 30  1  0  0  0  0
  6  7  1  0  0  0  0
  6 31  1  0  0  0  0
  6 32  1  0  0  0  0
  7 21  1  0  0  0  0
  7  8  2  0  0  0  0
  8  9  1  0  0  0  0
  9 10  1  0  0  0  0
  9 20  2  0  0  0  0
 10 11  1  0  0  0  0
 10 33  1  0  0  0  0
 10 34  1  0  0  0  0
 11 12  2  0  0  0  0
 11 13  1  0  0  0  0
 13 14  1  0  0  0  0
 13 35  1  0  0  0  0
 14 19  1  0  0  0  0
 14 15  1  0  0  0  0
 14 36  1  0  0  0  0
 15 16  1  0  0  0  0
 15 37  1  0  0  0  0
 15 38  1  0  0  0  0
 16 17  1  0  0  0  0
 16 39  1  0  0  0  0
 16 40  1  0  0  0  0
 17 18  1  0  0  0  0
 17 41  1  0  0  0  0
 17 42  1  0  0  0  0
 18 19  1  0  0  0  0
 18 43  1  0  0  0  0
 18 44  1  0  0  0  0
 19 45  1  0  0  0  0
 19 46  1  0  0  0  0
 20 21  1  0  0  0  0
M  END
> <s_m_source_file>
AV-unprocessed.smi

> <i_m_source_file_index>
1020

> <i_lp_mmshare_version>
43012

> <i_f3d_flags>
0

> <s_epik_input>
W0NIM11bQ0hdKFtDSDNdKU9bQ0gyXVtDSDJdYzFuYyhubzEpW0NIMl1DKD1PKVtOSF1bQ0hdMltDSDJdW0NIMl1bQ0gyXVtDSDJdW0NIMl0y

> <s_epik_cmdline>
J2VwaWtfcHl0aG9uJywgJy1waCcsICc3LjAnLCAnLXRuJywgJzgnLCAnLW1hJywgJzIwMCcsICctbWV0YWxfYmluZGluZycsICctaW1hZScsICc8aW5maWxlLm1hZT4nLCAnLW9tYWUnLCAnPG91dGZpbGUubWFlPic=

> <r_lp_tautomer_probability>
1

> <r_epik_Ionization_Penalty>
6.23671e-08

> <r_epik_Ionization_Penalty_Charging>
0

> <r_epik_Ionization_Penalty_Neutral>
6.23671e-08

> <r_epik_State_Penalty>
-0

> <r_epik_Charging_Adjusted_Penalty>
0

> <i_epik_Tot_Q>
0

> <i_epik_Tot_abs_Q>
0

> <r_epik_Metal_State_Penalty>
-0

> <b_epik_Metal_Only>
0

> <s_lp_Force_Field>
OPLS_2005

> <r_lp_Energy>
5.58856

> <b_lp_Chiralities_Consistent>
1

> <s_lp_Variant>
AV-unprocessed.smi:1020-1

> <Gold.Version>
5.8.1

> <Gold.Id.Protein>
6NUR|6NUR_protein|mol2

> <Gold.PLP.Fitness>
47.2139

> <Gold.PLP.PLP>
-42.7598

> <Gold.PLP.part.hbond>
-2.0000

> <Gold.PLP.part.metal>
0.0000

> <Gold.PLP.part.buried>
-5.7149

> <Gold.PLP.part.nonpolar>
-35.2732

> <Gold.PLP.part.repulsive>
0.5498

> <Gold.PLP.ligand.clash>
0.0000

> <Gold.PLP.ligand.torsion>
0.8059

> <Gold.PLP.Chemscore.Hbond>
1.9920

> <Gold.PLP.Chemscore.CHOScore>
0.0000

> <Gold.PLP.Chemscore.Metal>
0.0000

> <Gold.Chemscore.Hbonds>
donor molecule, donor type, donor heavy atom, donor atom, acceptor molecule, acceptor atom, score
      L1  H    13    35       P1  8028  1.00
      P1  H  7989  7998       L1    12  0.99

> <Gold.PLP.Chemscore.Internal.Correction>
0.0899

> <Gold.Rescore>
     Score         DG    S(hbond)    S(metal)    S(lipo)     H(rot)  DE(clash)    DE(int)     intcor
     16.00     -16.84       1.61        0.00      97.01       2.10       0.17       0.67       ----

> <Gold.Chemscore.Fitness>
15.9970

> <Gold.Chemscore.DG>
-16.8355

> <Gold.Chemscore.ZeroCoef>
-5.4800

> <Gold.Chemscore.Hbond>
1.6096

> <Gold.Chemscore.Metal>
0.0000

> <Gold.Chemscore.Lipo>
97.0137

> <Gold.Chemscore.Internal_Hbond>
0.0000

> <Gold.Chemscore.DEClash>
0.1723

> <Gold.Chemscore.DEInternal>
0.6661

> <Gold.Chemscore.Rot>
2.0982

> <Gold.Chemscore.Internal.Correction>
   9.000000E+99

> <Gold.Chemscore.Hbonds>
donor molecule, donor type, donor heavy atom, donor atom, acceptor molecule, acceptor atom, score
      L1  H    13    35       P1  8028  0.99
      P1  H  7989  7998       L1    12  0.23

> <Gold.Chemscore.Hbond.Weighted>
-5.3762

> <Gold.Chemscore.Metal.Weighted>
-0.0000

> <Gold.Chemscore.Lipo.Weighted>
-11.3506

> <Gold.Chemscore.Internal_Hbond.Weighted>
0.0000

> <Gold.Chemscore.DEClash.Weighted>
0.1723

> <Gold.Chemscore.DEInternal.Weighted>
0.6661

> <Gold.Chemscore.Rot.Weighted>
5.3713

> <Gold.Chemscore.Internal.Correction.Weighted>
   9.000000E+99

> <Gold.Protein.RotatedTorsions>
[ 6907 6896 6895 6894 ] final   -3.29 input  -60.11 | X-H torsion
[ 7974 7965 7964 7962 ] final -161.71 input  175.53 | X-H torsion
[ 8008 7997 7996 7995 ] final   41.77 input   59.86 | X-H torsion
[ 10167 10162 10161 10158 ] final  178.19 input  -65.29 | X-H torsion
[ 10718 10713 10712 10709 ] final   42.78 input   66.30 | X-H torsion
[ 10763 10752 10751 10750 ] final  127.77 input  -60.55 | X-H torsion
[ 11005 11000 10999 10996 ] final  114.16 input  -57.11 | X-H torsion

> <Gold.Protein.ActiveResidues>
 VAL166  LYS551  ARG553  GLY616  TRP617  ASP618  TYR619  PRO620  LYS621  CYS622 
 ASP623  PHE694  ASN695  SER759  ASP760  ASP761  ALA762  ILE779  LEU786  VAL792 
 PHE793  MET794  SER795  GLU796  ALA797  LYS798  CYS799  TRP800  GLU811  SER814 

> <Gold.Protein.RotatedAtoms>
  151.5162  135.1066  159.9866 H   0  0  0  0  0  0  0  0  0  0  0  0  # atno 6907 bound_to 6896
  152.4640  133.7879  159.6896 H   0  0  0  0  0  0  0  0  0  0  0  0  # atno 6908 bound_to 6896
  150.8615  133.7572  159.3016 H   0  0  0  0  0  0  0  0  0  0  0  0  # atno 6909 bound_to 6896
  144.7382  140.3358  143.6144 H   0  0  0  0  0  0  0  0  0  0  0  0  # atno 7974 bound_to 7965
  155.2751  140.3368  155.4262 H   0  0  0  0  0  0  0  0  0  0  0  0  # atno 8008 bound_to 7997
  156.2115  140.1772  156.7726 H   0  0  0  0  0  0  0  0  0  0  0  0  # atno 8009 bound_to 7997
  154.5693  140.0673  156.8924 H   0  0  0  0  0  0  0  0  0  0  0  0  # atno 8010 bound_to 7997
  139.5284  144.2709  152.0629 H   0  0  0  0  0  0  0  0  0  0  0  0  # atno 10167 bound_to 10162
  157.4086  130.7901  149.7411 H   0  0  0  0  0  0  0  0  0  0  0  0  # atno 10718 bound_to 10713
  153.7148  135.3262  155.3254 H   0  0  0  0  0  0  0  0  0  0  0  0  # atno 10763 bound_to 10752
  154.8374  135.4485  154.1277 H   0  0  0  0  0  0  0  0  0  0  0  0  # atno 10764 bound_to 10752
  153.2381  135.6968  153.7893 H   0  0  0  0  0  0  0  0  0  0  0  0  # atno 10765 bound_to 10752
  139.8973  134.9563  156.6850 H   0  0  0  0  0  0  0  0  0  0  0  0  # atno 11005 bound_to 11000
  145.7425  139.1768  143.2368 LP  0  0  0  0  0  0  0  0  0  0  0  0  # atno 17320 bound_to 7965
  146.1123  140.7413  142.9497 LP  0  0  0  0  0  0  0  0  0  0  0  0  # atno 17321 bound_to 7965
  140.2169  144.4506  150.6360 LP  0  0  0  0  0  0  0  0  0  0  0  0  # atno 17342 bound_to 10162
  140.6444  143.2210  151.6218 LP  0  0  0  0  0  0  0  0  0  0  0  0  # atno 17343 bound_to 10162
  155.9844  130.3992  150.3314 LP  0  0  0  0  0  0  0  0  0  0  0  0  # atno 17370 bound_to 10713
  157.1450  131.0306  151.2911 LP  0  0  0  0  0  0  0  0  0  0  0  0  # atno 17371 bound_to 10713
  140.7270  133.9092  155.8185 LP  0  0  0  0  0  0  0  0  0  0  0  0  # atno 17394 bound_to 11000
  141.0183  134.0924  157.4148 LP  0  0  0  0  0  0  0  0  0  0  0  0  # atno 17395 bound_to 11000

$$$$
