AV-unprocessed.smi:3193|AV-procd|sdf|12207|dock2
  -GOLD-   2272018 43D 1   1.00000     0.00000
 Structure written by MMmdl.
 41 42  0  0  0  0  0  0  0  0  3 V2000
  151.9883  144.7411  158.2196 C   0  0  0  0  0  0  0  0  0  0  0  0
  151.2313  143.6692  159.0302 C   0  0  2  0  0  0  0  0  0  0  0  0
  151.5757  143.7464  160.5328 C   0  0  0  0  0  0  0  0  0  0  0  0
  152.9884  143.2204  160.8374 C   0  0  0  0  0  0  0  0  0  0  0  0
  153.1754  141.7919  160.3064 C   0  0  0  0  0  0  0  0  0  0  0  0
  152.8463  141.7007  158.8077 C   0  0  0  0  0  0  0  0  0  0  0  0
  151.4222  142.2202  158.5061 C   0  0  2  0  0  0  0  0  0  0  0  0
  151.0474  142.0745  157.0174 C   0  0  0  0  0  0  0  0  0  0  0  0
  149.5847  142.1113  156.8170 N   0  3  0  0  0  0  0  0  0  0  0  0
  149.0540  140.9548  156.0664 C   0  0  0  0  0  0  0  0  0  0  0  0
  149.5674  140.9268  154.6169 C   0  0  0  0  0  0  0  0  0  0  0  0
  150.5703  139.8806  154.3857 N   0  0  0  0  0  0  0  0  0  0  0  0
  151.7286  139.6692  155.0900 C   0  0  0  0  0  0  0  0  0  0  0  0
  152.3326  138.5726  154.5308 C   0  0  0  0  0  0  0  0  0  0  0  0
  151.5148  138.1555  153.5153 N   0  3  0  0  0  0  0  0  0  0  0  0
  150.4415  138.9485  153.4315 C   0  0  0  0  0  0  0  0  0  0  0  0
  153.0630  144.5624  158.2017 H   0  0  0  0  0  0  0  0  0  0  0  0
  151.8301  145.7321  158.6457 H   0  0  0  0  0  0  0  0  0  0  0  0
  151.6422  144.7831  157.1872 H   0  0  0  0  0  0  0  0  0  0  0  0
  150.1716  143.9122  158.9389 H   0  0  0  0  0  0  0  0  0  0  0  0
  151.4747  144.7712  160.8919 H   0  0  0  0  0  0  0  0  0  0  0  0
  150.8500  143.1592  161.0972 H   0  0  0  0  0  0  0  0  0  0  0  0
  153.7357  143.8787  160.3937 H   0  0  0  0  0  0  0  0  0  0  0  0
  153.1661  143.2411  161.9130 H   0  0  0  0  0  0  0  0  0  0  0  0
  154.1993  141.4614  160.4835 H   0  0  0  0  0  0  0  0  0  0  0  0
  152.5312  141.1104  160.8632 H   0  0  0  0  0  0  0  0  0  0  0  0
  153.5831  142.2651  158.2355 H   0  0  0  0  0  0  0  0  0  0  0  0
  152.9467  140.6634  158.4877 H   0  0  0  0  0  0  0  0  0  0  0  0
  150.7259  141.5967  159.0703 H   0  0  0  0  0  0  0  0  0  0  0  0
  151.4923  142.8884  156.4431 H   0  0  0  0  0  0  0  0  0  0  0  0
  151.4423  141.1417  156.6126 H   0  0  0  0  0  0  0  0  0  0  0  0
  149.1421  142.1384  157.7245 H   0  0  0  0  0  0  0  0  0  0  0  0
  149.3172  140.0302  156.5820 H   0  0  0  0  0  0  0  0  0  0  0  0
  147.9648  141.0136  156.0598 H   0  0  0  0  0  0  0  0  0  0  0  0
  148.7397  140.7350  153.9328 H   0  0  0  0  0  0  0  0  0  0  0  0
  149.9910  141.8929  154.3375 H   0  0  0  0  0  0  0  0  0  0  0  0
  152.0305  140.2961  155.9170 H   0  0  0  0  0  0  0  0  0  0  0  0
  153.2558  138.0674  154.7759 H   0  0  0  0  0  0  0  0  0  0  0  0
  149.6305  138.8502  152.7315 H   0  0  0  0  0  0  0  0  0  0  0  0
  149.3535  142.9578  156.3170 H   0  0  0  0  0  0  0  0  0  0  0  0
  151.6902  137.3560  152.9187 H   0  0  0  0  0  0  0  0  0  0  0  0
  1  2  1  0  0  0  0
  1 17  1  0  0  0  0
  1 18  1  0  0  0  0
  1 19  1  0  0  0  0
  2  7  1  0  0  0  0
  2  3  1  0  0  0  0
  2 20  1  0  0  0  0
  3  4  1  0  0  0  0
  3 21  1  0  0  0  0
  3 22  1  0  0  0  0
  4  5  1  0  0  0  0
  4 23  1  0  0  0  0
  4 24  1  0  0  0  0
  5  6  1  0  0  0  0
  5 25  1  0  0  0  0
  5 26  1  0  0  0  0
  6  7  1  0  0  0  0
  6 27  1  0  0  0  0
  6 28  1  0  0  0  0
  7  8  1  0  0  0  0
  7 29  1  0  0  0  0
  8  9  1  0  0  0  0
  8 30  1  0  0  0  0
  8 31  1  0  0  0  0
  9 10  1  0  0  0  0
  9 32  1  0  0  0  0
  9 40  1  0  0  0  0
 10 11  1  0  0  0  0
 10 33  1  0  0  0  0
 10 34  1  0  0  0  0
 11 12  1  0  0  0  0
 11 35  1  0  0  0  0
 11 36  1  0  0  0  0
 12 16  1  0  0  0  0
 12 13  1  0  0  0  0
 13 14  2  0  0  0  0
 13 37  1  0  0  0  0
 14 15  1  0  0  0  0
 14 38  1  0  0  0  0
 15 16  2  0  0  0  0
 15 41  1  0  0  0  0
 16 39  1  0  0  0  0
M  CHG  1   9   1
M  CHG  1  15   1
M  END
> <s_m_source_file>
AV-unprocessed.smi

> <i_m_source_file_index>
3193

> <i_lp_mmshare_version>
43012

> <i_f3d_flags>
0

> <s_epik_input>
W0NIM11bQ0BASF0xW0NIMl1bQ0gyXVtDSDJdW0NIMl1bQ0BIXTFbQ0gyXVtOSF1bQ0gyXVtDSDJdbjJbY0hdW2NIXW5bY0hdMg==

> <s_epik_cmdline>
J2VwaWtfcHl0aG9uJywgJy1waCcsICc3LjAnLCAnLXRuJywgJzgnLCAnLW1hJywgJzIwMCcsICctbWV0YWxfYmluZGluZycsICctaW1hZScsICc8aW5maWxlLm1hZT4nLCAnLW9tYWUnLCAnPG91dGZpbGUubWFlPic=

> <r_lp_tautomer_probability>
1

> <r_epik_Ionization_Penalty>
1.50262

> <r_epik_Ionization_Penalty_Charging>
0.00193432

> <r_epik_Ionization_Penalty_Neutral>
1.50068

> <r_epik_State_Penalty>
1.11854

> <r_epik_Charging_Adjusted_Penalty>
1.12048

> <i_epik_Tot_Q>
2

> <i_epik_Tot_abs_Q>
2

> <r_epik_Metal_State_Penalty>
5.11322

> <b_epik_Metal_Only>
0

> <s_lp_Force_Field>
OPLS_2005

> <r_lp_Energy>
29.0126

> <b_lp_Chiralities_Consistent>
1

> <s_lp_Variant>
AV-unprocessed.smi:3193-7

> <Gold.Version>
5.8.1

> <Gold.Id.Protein>
6NUR|6NUR_protein|mol2

> <Gold.PLP.Fitness>
53.7521

> <Gold.PLP.PLP>
-40.0567

> <Gold.PLP.part.hbond>
-2.4005

> <Gold.PLP.part.metal>
0.0000

> <Gold.PLP.part.buried>
0.8165

> <Gold.PLP.part.nonpolar>
-36.7025

> <Gold.PLP.part.repulsive>
0.1382

> <Gold.PLP.ligand.clash>
0.0000

> <Gold.PLP.ligand.torsion>
0.8745

> <Gold.PLP.Chemscore.Hbond>
3.9840

> <Gold.PLP.Chemscore.CHOScore>
1.1409

> <Gold.PLP.Chemscore.Metal>
0.0000

> <Gold.Chemscore.Hbonds>
donor molecule, donor type, donor heavy atom, donor atom, acceptor molecule, acceptor atom, score
      L1  H     9    40       P1  8028  2.00
      L1  H    15    41       P1  7949  1.95
      L1  C    16    39       P1  7948  0.26
      L1  C    16    39       P1  7957  0.63

> <Gold.PLP.Chemscore.Internal.Correction>
0.0698

> <Gold.Rescore>
     Score         DG    S(hbond)    S(metal)    S(lipo)     H(rot)  DE(clash)    DE(int)     intcor
     17.25     -18.11       1.47        0.00     109.18       1.98       0.08       0.78       ----

> <Gold.Chemscore.Fitness>
17.2482

> <Gold.Chemscore.DG>
-18.1117

> <Gold.Chemscore.ZeroCoef>
-5.4800

> <Gold.Chemscore.Hbond>
1.4729

> <Gold.Chemscore.Metal>
0.0000

> <Gold.Chemscore.Lipo>
109.1824

> <Gold.Chemscore.Internal_Hbond>
0.0000

> <Gold.Chemscore.DEClash>
0.0803

> <Gold.Chemscore.DEInternal>
0.7832

> <Gold.Chemscore.Rot>
1.9774

> <Gold.Chemscore.Internal.Correction>
   9.000000E+99

> <Gold.Chemscore.Hbonds>
donor molecule, donor type, donor heavy atom, donor atom, acceptor molecule, acceptor atom, score
      L1  H     9    40       P1  8028  0.99
      L1  H    15    41       P1  7949  0.87

> <Gold.Chemscore.Hbond.Weighted>
-4.9195

> <Gold.Chemscore.Metal.Weighted>
-0.0000

> <Gold.Chemscore.Lipo.Weighted>
-12.7743

> <Gold.Chemscore.Internal_Hbond.Weighted>
0.0000

> <Gold.Chemscore.DEClash.Weighted>
0.0803

> <Gold.Chemscore.DEInternal.Weighted>
0.7832

> <Gold.Chemscore.Rot.Weighted>
5.0622

> <Gold.Chemscore.Internal.Correction.Weighted>
   9.000000E+99

> <Gold.Protein.RotatedTorsions>
[ 6907 6896 6895 6894 ] final  110.81 input  -60.11 | X-H torsion
[ 7974 7965 7964 7962 ] final  135.87 input  175.53 | X-H torsion
[ 8008 7997 7996 7995 ] final  126.73 input   59.86 | X-H torsion
[ 10167 10162 10161 10158 ] final    7.43 input  -65.29 | X-H torsion
[ 10718 10713 10712 10709 ] final  -72.50 input   66.30 | X-H torsion
[ 10763 10752 10751 10750 ] final   89.20 input  -60.55 | X-H torsion
[ 11005 11000 10999 10996 ] final -136.69 input  -57.11 | X-H torsion

> <Gold.Protein.ActiveResidues>
 VAL166  LYS551  ARG553  GLY616  TRP617  ASP618  TYR619  PRO620  LYS621  CYS622 
 ASP623  PHE694  ASN695  SER759  ASP760  ASP761  ALA762  ILE779  LEU786  VAL792 
 PHE793  MET794  SER795  GLU796  ALA797  LYS798  CYS799  TRP800  GLU811  SER814 

> <Gold.Protein.RotatedAtoms>
  152.5001  133.8747  159.7316 H   0  0  0  0  0  0  0  0  0  0  0  0  # atno 6907 bound_to 6896
  150.9225  133.6854  159.2835 H   0  0  0  0  0  0  0  0  0  0  0  0  # atno 6908 bound_to 6896
  151.4226  135.1004  159.9671 H   0  0  0  0  0  0  0  0  0  0  0  0  # atno 6909 bound_to 6896
  144.9621  139.4699  143.5474 H   0  0  0  0  0  0  0  0  0  0  0  0  # atno 7974 bound_to 7965
  156.2872  140.2686  156.2158 H   0  0  0  0  0  0  0  0  0  0  0  0  # atno 8008 bound_to 7997
  155.0218  140.0386  157.2458 H   0  0  0  0  0  0  0  0  0  0  0  0  # atno 8009 bound_to 7997
  154.7429  140.2728  155.6363 H   0  0  0  0  0  0  0  0  0  0  0  0  # atno 8010 bound_to 7997
  140.6372  143.7859  150.7376 H   0  0  0  0  0  0  0  0  0  0  0  0  # atno 10167 bound_to 10162
  156.0318  130.4373  150.2602 H   0  0  0  0  0  0  0  0  0  0  0  0  # atno 10718 bound_to 10713
  153.1846  135.4479  155.0072 H   0  0  0  0  0  0  0  0  0  0  0  0  # atno 10763 bound_to 10752
  154.8052  135.3271  154.7452 H   0  0  0  0  0  0  0  0  0  0  0  0  # atno 10764 bound_to 10752
  153.7912  135.6970  153.4926 H   0  0  0  0  0  0  0  0  0  0  0  0  # atno 10765 bound_to 10752
  140.8782  134.1966  157.4608 H   0  0  0  0  0  0  0  0  0  0  0  0  # atno 11005 bound_to 11000
  146.3356  139.8777  142.8829 LP  0  0  0  0  0  0  0  0  0  0  0  0  # atno 17320 bound_to 7965
  145.2685  141.0101  143.3785 LP  0  0  0  0  0  0  0  0  0  0  0  0  # atno 17321 bound_to 7965
  140.1482  143.4380  152.2148 LP  0  0  0  0  0  0  0  0  0  0  0  0  # atno 17342 bound_to 10162
  139.5582  144.7387  151.4232 LP  0  0  0  0  0  0  0  0  0  0  0  0  # atno 17343 bound_to 10162
  157.0704  131.0115  151.3192 LP  0  0  0  0  0  0  0  0  0  0  0  0  # atno 17370 bound_to 10713
  157.5004  130.7876  149.7598 LP  0  0  0  0  0  0  0  0  0  0  0  0  # atno 17371 bound_to 10713
  139.8717  134.9805  156.5079 LP  0  0  0  0  0  0  0  0  0  0  0  0  # atno 17394 bound_to 11000
  140.8493  133.8144  155.9153 LP  0  0  0  0  0  0  0  0  0  0  0  0  # atno 17395 bound_to 11000

$$$$
