#       Name:                AV-unprocessed.smi:2001
#       Creating user name   scv26
#       Creation time:       Fri Mar 27 10:33:39 2020


#       File generated by GOLD software.
#

@<TRIPOS>MOLECULE
AV-unprocessed.smi:2001
    60    61     1
SMALL
NO_CHARGES


@<TRIPOS>ATOM
      1 ****        -4.2210  -1.8709  -2.5543 C.3            1 S1                 0.0000
      2 ****        -4.0054  -1.3232  -1.2655 O.3            1 S1                 0.0000
      3 ****        -3.6527   0.0487  -1.3123 C.3            1 S1                 0.0000
      4 ****        -3.4213   0.5519   0.1208 C.3            1 S1                 0.0000
      5 ****        -2.8937   1.9200   0.1303 N.am           1 S1                 0.0000
      6 ****        -1.5182   1.9905   0.2679 N.2            1 S1                 0.0000
      7 ****        -0.9211   3.1386   0.2596 C.2            1 S1                 0.0000
      8 ****         0.5577   3.2504   0.3953 C.2            1 S1                 0.0000
      9 ****         1.1471   4.3265   0.2880 O.2            1 S1                 0.0000
     10 ****         1.1943   2.0916   0.6311 N.am           1 S1                 0.0000
     11 ****         2.6384   1.9281   0.7350 C.3            1 S1                 0.0000
     12 ****         3.0032   0.5116   1.2175 C.3            1 S1                 0.0000
     13 ****         3.1486  -0.4867   0.1198 N.4            1 S1                 1.0000
     14 ****         3.7359  -1.7696   0.5793 C.3            1 S1                 0.0000
     15 ****         2.6917  -2.6338   1.3229 C.3            1 S1                 0.0000
     16 ****         3.2478  -4.0122   1.6958 C.3            1 S1                 0.0000
     17 ****         1.5528  -2.8288   0.4885 O.3            1 S1                 0.0000
     18 ****         0.9174  -1.6100   0.1156 C.3            1 S1                 0.0000
     19 ****        -0.3283  -1.9460  -0.7109 C.3            1 S1                 0.0000
     20 ****         1.9256  -0.7557  -0.6786 C.3            1 S1                 0.0000
     21 ****        -1.6771   4.3699   0.1104 C.2            1 S1                 0.0000
     22 ****        -3.0199   4.2857  -0.0153 C.2            1 S1                 0.0000
     23 ****        -3.7202   2.9998  -0.0114 C.2            1 S1                 0.0000
     24 ****        -4.9405   2.8967  -0.1313 O.2            1 S1                 0.0000
     25 ****        -4.4947  -2.9220  -2.4658 H              1 S1                 0.0000
     26 ****        -3.3193  -1.8089  -3.1649 H              1 S1                 0.0000
     27 ****        -5.0309  -1.3548  -3.0714 H              1 S1                 0.0000
     28 ****        -2.7474   0.1776  -1.9077 H              1 S1                 0.0000
     29 ****        -4.4457   0.6231  -1.7936 H              1 S1                 0.0000
     30 ****        -4.3478   0.4930   0.6944 H              1 S1                 0.0000
     31 ****        -2.7226  -0.1158   0.6285 H              1 S1                 0.0000
     32 ****         0.6306   1.2581   0.7155 H              1 S1                 0.0000
     33 ****         3.1200   2.1580  -0.2165 H              1 S1                 0.0000
     34 ****         3.0089   2.6546   1.4599 H              1 S1                 0.0000
     35 ****         3.9704   0.5808   1.7171 H              1 S1                 0.0000
     36 ****         2.3012   0.1732   1.9797 H              1 S1                 0.0000
     37 ****         4.0996  -2.3100  -0.2958 H              1 S1                 0.0000
     38 ****         4.6081  -1.5862   1.2081 H              1 S1                 0.0000
     39 ****         2.3775  -2.1360   2.2413 H              1 S1                 0.0000
     40 ****         4.1167  -3.9217   2.3480 H              1 S1                 0.0000
     41 ****         3.5513  -4.5695   0.8090 H              1 S1                 0.0000
     42 ****         2.4989  -4.6057   2.2213 H              1 S1                 0.0000
     43 ****         0.5942  -1.0796   1.0124 H              1 S1                 0.0000
     44 ****        -0.8418  -1.0376  -1.0248 H              1 S1                 0.0000
     45 ****        -1.0339  -2.5423  -0.1320 H              1 S1                 0.0000
     46 ****        -0.0703  -2.5108  -1.6072 H              1 S1                 0.0000
     47 ****         1.4712   0.1645  -1.0400 H              1 S1                 0.0000
     48 ****         2.2248  -1.2997  -1.5758 H              1 S1                 0.0000
     49 ****        -1.1857   5.3321   0.1039 H              1 S1                 0.0000
     50 ****        -3.5953   5.1934  -0.1244 H              1 S1                 0.0000
     51 ****         3.8207  -0.0831  -0.5174 H              1 S1                 0.0000
     52 ****        -3.2664  -1.8295  -0.8211 LP             1 S1                 0.0000
     53 ****        -4.8448  -1.4207  -0.7308 LP             1 S1                 0.0000
     54 ****        -0.9842   1.1517   0.3740 LP             1 S1                 0.0000
     55 ****         0.6311   5.1631   0.1037 LP             1 S1                 0.0000
     56 ****         2.1417   4.3638   0.3852 LP             1 S1                 0.0000
     57 ****         0.8913  -3.3949   0.9803 LP             1 S1                 0.0000
     58 ****         1.8445  -3.3026  -0.3424 LP             1 S1                 0.0000
     59 ****        -5.3687   1.9931  -0.1277 LP             1 S1                 0.0000
     60 ****        -5.5040   3.7166  -0.2323 LP             1 S1                 0.0000
@<TRIPOS>BOND
    1    1    2 1     
    2    1   25 1     
    3    1   26 1     
    4    1   27 1     
    5    2    3 1     
    6    3    4 1     
    7    3   28 1     
    8    3   29 1     
    9    4    5 1     
   10    4   30 1     
   11    4   31 1     
   12    5   23 am    
   13    5    6 1     
   14    6    7 2     
   15    7    8 1     
   16    7   21 1     
   17    8    9 2     
   18    8   10 am    
   19   10   11 1     
   20   10   32 1     
   21   11   12 1     
   22   11   33 1     
   23   11   34 1     
   24   12   13 1     
   25   12   35 1     
   26   12   36 1     
   27   13   20 1     
   28   13   14 1     
   29   13   51 1     
   30   14   15 1     
   31   14   37 1     
   32   14   38 1     
   33   15   16 1     
   34   15   17 1     
   35   15   39 1     
   36   16   40 1     
   37   16   41 1     
   38   16   42 1     
   39   17   18 1     
   40   18   19 1     
   41   18   20 1     
   42   18   43 1     
   43   19   44 1     
   44   19   45 1     
   45   19   46 1     
   46   20   47 1     
   47   20   48 1     
   48   21   22 2     
   49   21   49 1     
   50   22   23 1     
   51   22   50 1     
   52   23   24 2     
   53    2   52 1     
   54    2   53 1     
   55    6   54 1     
   56    9   55 1     
   57    9   56 1     
   58   17   57 1     
   59   17   58 1     
   60   24   59 1     
   61   24   60 1     
@<TRIPOS>SUBSTRUCTURE
      1 S1             1
@<TRIPOS>SET
LONE_PAIRS      STATIC     ATOMS    <user>   **** ""
9 52 53 54 55 56 57 58 59 60
DONOR_HYDROGENS      STATIC     ATOMS    <user>   **** ""
2 32 51
ATOM$BLUE        STATIC     ATOMS    COLORGROUP SYSTEM
9 52 53 54 55 56 57 58 59 60
ATOM$RED        STATIC     ATOMS    COLORGROUP SYSTEM
2 32 51
