AV-unprocessed.smi:2329|AV-procd|sdf|9302|dock9
  -GOLD-   2272012523D 1   1.00000     0.00000
 Structure written by MMmdl.
 45 48  0  0  0  0  0  0  0  0  1 V2000
  147.1575  136.9802  163.2636 C   0  0  0  0  0  0  0  0  0  0  0  0
  147.1488  136.2128  161.9585 C   0  0  0  0  0  0  0  0  0  0  0  0
  146.7236  134.8706  161.9085 C   0  0  0  0  0  0  0  0  0  0  0  0
  146.7407  134.2156  160.6640 C   0  0  0  0  0  0  0  0  0  0  0  0
  147.1793  134.9244  159.5292 C   0  0  0  0  0  0  0  0  0  0  0  0
  147.5902  136.2692  159.6663 C   0  0  0  0  0  0  0  0  0  0  0  0
  148.0074  136.8942  158.4628 N   0  0  0  0  0  0  0  0  0  0  0  0
  148.4477  138.1545  158.2819 C   0  0  0  0  0  0  0  0  0  0  0  0
  148.6551  138.9627  159.1851 O   0  0  0  0  0  0  0  0  0  0  0  0
  148.6577  138.4794  156.9945 N   0  0  0  0  0  0  0  0  0  0  0  0
  149.1313  139.7565  156.4587 C   0  0  2  0  0  0  0  0  0  0  0  0
  148.1351  140.3648  155.4710 C   0  0  1  0  0  0  0  0  0  0  0  0
  147.2509  141.5603  155.4886 C   0  0  0  0  0  0  0  0  0  0  0  0
  147.5969  142.1041  154.0771 C   0  0  0  0  0  0  0  0  0  0  0  0
  148.7395  141.3375  153.6254 O   0  0  0  0  0  0  0  0  0  0  0  0
  149.3766  140.9401  154.8227 C   0  0  2  0  0  0  0  0  0  0  0  0
  150.0908  139.6303  155.2108 C   0  0  0  0  0  0  0  0  0  0  0  0
  151.5987  139.7312  155.4719 C   0  0  0  0  0  0  0  0  0  0  0  0
  152.2753  138.4343  155.0102 C   0  0  0  0  0  0  0  0  0  0  0  0
  151.1488  137.4976  154.5859 C   0  0  0  0  0  0  0  0  0  0  0  0
  149.9778  138.4217  154.2655 C   0  0  0  0  0  0  0  0  0  0  0  0
  147.5701  136.8925  160.8705 N   0  0  0  0  0  0  0  0  0  0  0  0
  146.7173  136.3941  164.0707 H   0  0  0  0  0  0  0  0  0  0  0  0
  146.5876  137.9045  163.1653 H   0  0  0  0  0  0  0  0  0  0  0  0
  148.1797  137.2346  163.5448 H   0  0  0  0  0  0  0  0  0  0  0  0
  146.3927  134.3545  162.7977 H   0  0  0  0  0  0  0  0  0  0  0  0
  146.4225  133.1870  160.5805 H   0  0  0  0  0  0  0  0  0  0  0  0
  147.1968  134.4368  158.5653 H   0  0  0  0  0  0  0  0  0  0  0  0
  147.9114  136.3348  157.6283 H   0  0  0  0  0  0  0  0  0  0  0  0
  148.4797  137.7558  156.3128 H   0  0  0  0  0  0  0  0  0  0  0  0
  149.4657  140.4672  157.2203 H   0  0  0  0  0  0  0  0  0  0  0  0
  147.6726  139.5801  154.8648 H   0  0  0  0  0  0  0  0  0  0  0  0
  146.1959  141.3059  155.5934 H   0  0  0  0  0  0  0  0  0  0  0  0
  147.5295  142.2613  156.2768 H   0  0  0  0  0  0  0  0  0  0  0  0
  146.7715  141.9747  153.3764 H   0  0  0  0  0  0  0  0  0  0  0  0
  147.8425  143.1660  154.1191 H   0  0  0  0  0  0  0  0  0  0  0  0
  149.7925  141.8079  155.3477 H   0  0  0  0  0  0  0  0  0  0  0  0
  152.0283  140.5767  154.9333 H   0  0  0  0  0  0  0  0  0  0  0  0
  151.8046  139.9107  156.5267 H   0  0  0  0  0  0  0  0  0  0  0  0
  152.9249  138.6427  154.1596 H   0  0  0  0  0  0  0  0  0  0  0  0
  152.8922  137.9920  155.7931 H   0  0  0  0  0  0  0  0  0  0  0  0
  151.4250  136.8625  153.7438 H   0  0  0  0  0  0  0  0  0  0  0  0
  150.8843  136.8443  155.4178 H   0  0  0  0  0  0  0  0  0  0  0  0
  149.0337  137.8841  154.3507 H   0  0  0  0  0  0  0  0  0  0  0  0
  150.0547  138.7557  153.2300 H   0  0  0  0  0  0  0  0  0  0  0  0
  1  2  1  0  0  0  0
  1 23  1  0  0  0  0
  1 24  1  0  0  0  0
  1 25  1  0  0  0  0
  2 22  1  0  0  0  0
  2  3  2  0  0  0  0
  3  4  1  0  0  0  0
  3 26  1  0  0  0  0
  4  5  2  0  0  0  0
  4 27  1  0  0  0  0
  5  6  1  0  0  0  0
  5 28  1  0  0  0  0
  6  7  1  0  0  0  0
  6 22  2  0  0  0  0
  7  8  1  0  0  0  0
  7 29  1  0  0  0  0
  8  9  2  0  0  0  0
  8 10  1  0  0  0  0
 10 11  1  0  0  0  0
 10 30  1  0  0  0  0
 11 17  1  0  0  0  0
 11 12  1  0  0  0  0
 11 31  1  0  0  0  0
 12 16  1  0  0  0  0
 12 13  1  0  0  0  0
 12 32  1  0  0  0  0
 13 14  1  0  0  0  0
 13 33  1  0  0  0  0
 13 34  1  0  0  0  0
 14 15  1  0  0  0  0
 14 35  1  0  0  0  0
 14 36  1  0  0  0  0
 15 16  1  0  0  0  0
 16 17  1  0  0  0  0
 16 37  1  0  0  0  0
 17 21  1  0  0  0  0
 17 18  1  0  0  0  0
 18 19  1  0  0  0  0
 18 38  1  0  0  0  0
 18 39  1  0  0  0  0
 19 20  1  0  0  0  0
 19 40  1  0  0  0  0
 19 41  1  0  0  0  0
 20 21  1  0  0  0  0
 20 42  1  0  0  0  0
 20 43  1  0  0  0  0
 21 44  1  0  0  0  0
 21 45  1  0  0  0  0
M  END
> <s_m_source_file>
AV-unprocessed.smi

> <i_m_source_file_index>
2329

> <i_lp_mmshare_version>
43012

> <i_f3d_flags>
0

> <s_epik_input>
W0NIM11jMVtjSF1bY0hdW2NIXWMobjEpW05IXUMoPU8pW05IXVtDQEBIXTJbQ0BASF0oW0NIMl1bQ0gyXU8zKVtDQEhdM0MyNFtDSDJdW0NIMl1bQ0gyXVtDSDJdNA==

> <s_epik_cmdline>
J2VwaWtfcHl0aG9uJywgJy1waCcsICc3LjAnLCAnLXRuJywgJzgnLCAnLW1hJywgJzIwMCcsICctbWV0YWxfYmluZGluZycsICctaW1hZScsICc8aW5maWxlLm1hZT4nLCAnLW9tYWUnLCAnPG91dGZpbGUubWFlPic=

> <r_lp_tautomer_probability>
1

> <r_epik_Ionization_Penalty>
8.97002e-05

> <r_epik_Ionization_Penalty_Charging>
0

> <r_epik_Ionization_Penalty_Neutral>
8.97002e-05

> <r_epik_State_Penalty>
-0

> <r_epik_Charging_Adjusted_Penalty>
0

> <i_epik_Tot_Q>
0

> <i_epik_Tot_abs_Q>
0

> <r_epik_Metal_State_Penalty>
-0

> <b_epik_Metal_Only>
0

> <s_lp_Force_Field>
OPLS_2005

> <r_lp_Energy>
86.3971

> <b_lp_Chiralities_Consistent>
1

> <s_lp_Variant>
AV-unprocessed.smi:2329-1

> <Gold.Version>
5.8.1

> <Gold.Id.Protein>
6NUR|6NUR_protein|mol2

> <Gold.PLP.Fitness>
44.2982

> <Gold.PLP.PLP>
-38.7769

> <Gold.PLP.part.hbond>
-4.6262

> <Gold.PLP.part.metal>
0.0000

> <Gold.PLP.part.buried>
0.1742

> <Gold.PLP.part.nonpolar>
-37.0055

> <Gold.PLP.part.repulsive>
1.5355

> <Gold.PLP.ligand.clash>
0.0000

> <Gold.PLP.ligand.torsion>
0.1677

> <Gold.PLP.Chemscore.Hbond>
1.8590

> <Gold.PLP.Chemscore.CHOScore>
0.0000

> <Gold.PLP.Chemscore.Metal>
0.0000

> <Gold.Chemscore.Hbonds>
donor molecule, donor type, donor heavy atom, donor atom, acceptor molecule, acceptor atom, score
      P1  H  6931  6943       L1    22  0.39
      P1  H  6934  6947       L1    22  0.67
      P1  H  8011  8017       L1    15  0.83

> <Gold.PLP.Chemscore.Internal.Correction>
0.2796

> <Gold.Rescore>
     Score         DG    S(hbond)    S(metal)    S(lipo)     H(rot)  DE(clash)    DE(int)     intcor
     14.97     -18.67       1.38        0.00      95.31       1.00       2.18       1.52       ----

> <Gold.Chemscore.Fitness>
14.9677

> <Gold.Chemscore.DG>
-18.6721

> <Gold.Chemscore.ZeroCoef>
-5.4800

> <Gold.Chemscore.Hbond>
1.3776

> <Gold.Chemscore.Metal>
0.0000

> <Gold.Chemscore.Lipo>
95.3062

> <Gold.Chemscore.Internal_Hbond>
0.0000

> <Gold.Chemscore.DEClash>
2.1809

> <Gold.Chemscore.DEInternal>
1.5236

> <Gold.Chemscore.Rot>
1.0000

> <Gold.Chemscore.Internal.Correction>
   9.000000E+99

> <Gold.Chemscore.Hbonds>
donor molecule, donor type, donor heavy atom, donor atom, acceptor molecule, acceptor atom, score
      P1  H  6931  6943       L1    22  0.08
      P1  H  6934  6947       L1    22  0.55
      P1  H  8011  8017       L1    15  0.54

> <Gold.Chemscore.Hbond.Weighted>
-4.6013

> <Gold.Chemscore.Metal.Weighted>
-0.0000

> <Gold.Chemscore.Lipo.Weighted>
-11.1508

> <Gold.Chemscore.Internal_Hbond.Weighted>
0.0000

> <Gold.Chemscore.DEClash.Weighted>
2.1809

> <Gold.Chemscore.DEInternal.Weighted>
1.5236

> <Gold.Chemscore.Rot.Weighted>
2.5600

> <Gold.Chemscore.Internal.Correction.Weighted>
   9.000000E+99

> <Gold.Protein.RotatedTorsions>
[ 6907 6896 6895 6894 ] final  -70.76 input  -60.11 | X-H torsion
[ 7974 7965 7964 7962 ] final  102.83 input  175.53 | X-H torsion
[ 8008 7997 7996 7995 ] final  166.15 input   59.86 | X-H torsion
[ 10167 10162 10161 10158 ] final    5.83 input  -65.29 | X-H torsion
[ 10718 10713 10712 10709 ] final -142.32 input   66.30 | X-H torsion
[ 10763 10752 10751 10750 ] final  156.19 input  -60.55 | X-H torsion
[ 11005 11000 10999 10996 ] final -121.57 input  -57.11 | X-H torsion

> <Gold.Protein.ActiveResidues>
 VAL166  LYS551  ARG553  GLY616  TRP617  ASP618  TYR619  PRO620  LYS621  CYS622 
 ASP623  PHE694  ASN695  SER759  ASP760  ASP761  ALA762  ILE779  LEU786  VAL792 
 PHE793  MET794  SER795  GLU796  ALA797  LYS798  CYS799  TRP800  GLU811  SER814 

> <Gold.Protein.RotatedAtoms>
  150.7243  134.5406  159.5745 H   0  0  0  0  0  0  0  0  0  0  0  0  # atno 6907 bound_to 6896
  152.2918  134.7710  160.0385 H   0  0  0  0  0  0  0  0  0  0  0  0  # atno 6908 bound_to 6896
  151.8321  133.3375  159.3653 H   0  0  0  0  0  0  0  0  0  0  0  0  # atno 6909 bound_to 6896
  145.3539  139.2433  143.3543 H   0  0  0  0  0  0  0  0  0  0  0  0  # atno 7974 bound_to 7965
  156.1742  140.1651  156.8392 H   0  0  0  0  0  0  0  0  0  0  0  0  # atno 8008 bound_to 7997
  154.5289  140.0761  156.8343 H   0  0  0  0  0  0  0  0  0  0  0  0  # atno 8009 bound_to 7997
  155.3448  140.3386  155.4241 H   0  0  0  0  0  0  0  0  0  0  0  0  # atno 8010 bound_to 7997
  140.6461  143.7659  150.7501 H   0  0  0  0  0  0  0  0  0  0  0  0  # atno 10167 bound_to 10162
  156.3446  130.7655  151.1798 H   0  0  0  0  0  0  0  0  0  0  0  0  # atno 10718 bound_to 10713
  154.1803  135.2800  155.3054 H   0  0  0  0  0  0  0  0  0  0  0  0  # atno 10763 bound_to 10752
  154.6007  135.5530  153.7375 H   0  0  0  0  0  0  0  0  0  0  0  0  # atno 10764 bound_to 10752
  153.0140  135.6391  154.1942 H   0  0  0  0  0  0  0  0  0  0  0  0  # atno 10765 bound_to 10752
  141.0060  134.0333  157.3476 H   0  0  0  0  0  0  0  0  0  0  0  0  # atno 11005 bound_to 11000
  146.2956  140.4161  142.8723 LP  0  0  0  0  0  0  0  0  0  0  0  0  # atno 17320 bound_to 7965
  144.8697  140.7255  143.6055 LP  0  0  0  0  0  0  0  0  0  0  0  0  # atno 17321 bound_to 7965
  140.1300  143.4534  152.2260 LP  0  0  0  0  0  0  0  0  0  0  0  0  # atno 17342 bound_to 10162
  139.5672  144.7442  151.3990 LP  0  0  0  0  0  0  0  0  0  0  0  0  # atno 17343 bound_to 10162
  157.7452  131.0445  150.4796 LP  0  0  0  0  0  0  0  0  0  0  0  0  # atno 17370 bound_to 10713
  156.4981  130.4111  149.6368 LP  0  0  0  0  0  0  0  0  0  0  0  0  # atno 17371 bound_to 10713
  139.9064  135.0180  156.7503 LP  0  0  0  0  0  0  0  0  0  0  0  0  # atno 17394 bound_to 11000
  140.6811  133.9473  155.7911 LP  0  0  0  0  0  0  0  0  0  0  0  0  # atno 17395 bound_to 11000

$$$$
