AV-unprocessed.smi:162|AV-procd|sdf|1377|dock4
  -GOLD-   2262019103D 1   1.00000     0.00000
 Structure written by MMmdl.
 54 57  0  0  0  0  0  0  0  0  1 V2000
  145.7848  143.2116  154.1643 C   0  0  0  0  0  0  0  0  0  0  0  0
  146.8840  142.3725  154.4712 O   0  0  0  0  0  0  0  0  0  0  0  0
  147.0062  141.2874  153.5672 C   0  0  0  0  0  0  0  0  0  0  0  0
  148.1219  140.3500  154.0560 C   0  0  1  0  0  0  0  0  0  0  0  0
  149.4450  141.0539  154.3506 C   0  0  0  0  0  0  0  0  0  0  0  0
  150.1580  140.0234  155.2256 C   0  0  1  0  0  0  0  0  0  0  0  0
  151.1391  140.5896  156.0821 O   0  0  0  0  0  0  0  0  0  0  0  0
  150.7035  141.7678  156.7403 C   0  0  0  0  0  0  0  0  0  0  0  0
  149.0133  139.4114  156.0424 C   0  0  0  0  0  0  0  0  0  0  0  0
  147.7808  139.6726  155.3032 N   0  0  0  0  0  0  0  0  0  0  0  0
  146.9574  138.6112  155.1616 C   0  0  0  0  0  0  0  0  0  0  0  0
  146.6100  137.9451  156.2895 N   0  0  0  0  0  0  0  0  0  0  0  0
  145.7831  136.8974  156.2175 C   0  0  0  0  0  0  0  0  0  0  0  0
  145.1999  136.3657  155.1408 N   0  0  0  0  0  0  0  0  0  0  0  0
  145.5476  137.0370  154.0053 C   0  0  0  0  0  0  0  0  0  0  0  0
  146.4166  138.1605  153.9243 C   0  0  0  0  0  0  0  0  0  0  0  0
  146.5337  138.5767  152.6034 N   0  0  0  0  0  0  0  0  0  0  0  0
  145.7738  137.7473  151.9414 C   0  0  0  0  0  0  0  0  0  0  0  0
  145.1363  136.7963  152.7062 N   0  0  0  0  0  0  0  0  0  0  0  0
  144.2277  135.7628  152.2341 C   0  0  0  0  0  0  0  0  0  0  0  0
  144.9228  134.6458  151.4168 C   0  0  0  0  0  0  0  0  0  0  0  0
  145.5243  135.2530  150.2861 O   0  0  0  0  0  0  0  0  0  0  0  0
  146.0292  133.9737  152.2544 C   0  0  0  0  0  0  0  0  0  0  0  0
  146.6333  132.7497  151.5433 C   0  0  0  0  0  0  0  0  0  0  0  0
  145.6055  131.8255  151.2074 O   0  0  0  0  0  0  0  0  0  0  0  0
  144.6594  132.3633  150.2916 C   0  0  0  0  0  0  0  0  0  0  0  0
  143.9351  133.5655  150.9232 C   0  0  0  0  0  0  0  0  0  0  0  0
  148.3011  139.5990  153.2849 H   0  0  0  0  0  0  0  0  0  0  0  0
  150.5948  139.2437  154.5983 H   0  0  0  0  0  0  0  0  0  0  0  0
  145.7340  144.0276  154.8852 H   0  0  0  0  0  0  0  0  0  0  0  0
  144.8439  142.6618  154.2113 H   0  0  0  0  0  0  0  0  0  0  0  0
  145.8868  143.6470  153.1694 H   0  0  0  0  0  0  0  0  0  0  0  0
  146.0612  140.7465  153.4904 H   0  0  0  0  0  0  0  0  0  0  0  0
  147.2453  141.6712  152.5740 H   0  0  0  0  0  0  0  0  0  0  0  0
  149.9998  141.3066  153.4467 H   0  0  0  0  0  0  0  0  0  0  0  0
  149.2710  141.9717  154.9147 H   0  0  0  0  0  0  0  0  0  0  0  0
  151.5145  142.1627  157.3521 H   0  0  0  0  0  0  0  0  0  0  0  0
  149.8564  141.5705  157.3979 H   0  0  0  0  0  0  0  0  0  0  0  0
  150.4189  142.5389  156.0233 H   0  0  0  0  0  0  0  0  0  0  0  0
  149.1883  138.3541  156.2467 H   0  0  0  0  0  0  0  0  0  0  0  0
  148.9276  139.9157  157.0052 H   0  0  0  0  0  0  0  0  0  0  0  0
  145.5538  136.4183  157.1578 H   0  0  0  0  0  0  0  0  0  0  0  0
  145.6487  137.8116  150.8702 H   0  0  0  0  0  0  0  0  0  0  0  0
  143.7129  135.3389  153.0976 H   0  0  0  0  0  0  0  0  0  0  0  0
  143.4574  136.2423  151.6289 H   0  0  0  0  0  0  0  0  0  0  0  0
  145.2920  134.7529  149.5185 H   0  0  0  0  0  0  0  0  0  0  0  0
  146.8146  134.6902  152.4988 H   0  0  0  0  0  0  0  0  0  0  0  0
  145.6105  133.6447  153.2065 H   0  0  0  0  0  0  0  0  0  0  0  0
  147.1810  133.0447  150.6470 H   0  0  0  0  0  0  0  0  0  0  0  0
  147.3484  132.2542  152.2000 H   0  0  0  0  0  0  0  0  0  0  0  0
  145.1561  132.6471  149.3625 H   0  0  0  0  0  0  0  0  0  0  0  0
  143.9377  131.5869  150.0376 H   0  0  0  0  0  0  0  0  0  0  0  0
  143.3434  133.2083  151.7670 H   0  0  0  0  0  0  0  0  0  0  0  0
  143.2263  133.9824  150.2065 H   0  0  0  0  0  0  0  0  0  0  0  0
  1  2  1  0  0  0  0
  1 30  1  0  0  0  0
  1 31  1  0  0  0  0
  1 32  1  0  0  0  0
  2  3  1  0  0  0  0
  3  4  1  0  0  0  0
  3 33  1  0  0  0  0
  3 34  1  0  0  0  0
  4 28  1  0  0  0  0
  4 10  1  0  0  0  0
  4  5  1  0  0  0  0
  5  6  1  0  0  0  0
  5 35  1  0  0  0  0
  5 36  1  0  0  0  0
  6 29  1  0  0  0  0
  6  7  1  0  0  0  0
  6  9  1  0  0  0  0
  7  8  1  0  0  0  0
  8 37  1  0  0  0  0
  8 38  1  0  0  0  0
  8 39  1  0  0  0  0
  9 10  1  0  0  0  0
  9 40  1  0  0  0  0
  9 41  1  0  0  0  0
 10 11  1  0  0  0  0
 11 16  1  0  0  0  0
 11 12  2  0  0  0  0
 12 13  1  0  0  0  0
 13 14  2  0  0  0  0
 13 42  1  0  0  0  0
 14 15  1  0  0  0  0
 15 19  1  0  0  0  0
 15 16  2  0  0  0  0
 16 17  1  0  0  0  0
 17 18  2  0  0  0  0
 18 19  1  0  0  0  0
 18 43  1  0  0  0  0
 19 20  1  0  0  0  0
 20 21  1  0  0  0  0
 20 44  1  0  0  0  0
 20 45  1  0  0  0  0
 21 27  1  0  0  0  0
 21 22  1  0  0  0  0
 21 23  1  0  0  0  0
 22 46  1  0  0  0  0
 23 24  1  0  0  0  0
 23 47  1  0  0  0  0
 23 48  1  0  0  0  0
 24 25  1  0  0  0  0
 24 49  1  0  0  0  0
 24 50  1  0  0  0  0
 25 26  1  0  0  0  0
 26 27  1  0  0  0  0
 26 51  1  0  0  0  0
 26 52  1  0  0  0  0
 27 53  1  0  0  0  0
 27 54  1  0  0  0  0
M  END
> <s_m_source_file>
AV-unprocessed.smi

> <i_m_source_file_index>
162

> <i_lp_mmshare_version>
43012

> <i_f3d_flags>
0

> <s_epik_input>
W0NIM11PW0NIMl1bQ0BASF0xW0NIMl1bQ0BASF0oT1tDSDNdKVtDSDJdTjFjKG5bY0hdbjIpYyhjMjMpbltjSF1uM1tDSDJdQzQoW09IXSlbQ0gyXVtDSDJdT1tDSDJdW0NIMl00

> <s_epik_cmdline>
J2VwaWtfcHl0aG9uJywgJy1waCcsICc3LjAnLCAnLXRuJywgJzgnLCAnLW1hJywgJzIwMCcsICctbWV0YWxfYmluZGluZycsICctaW1hZScsICc8aW5maWxlLm1hZT4nLCAnLW9tYWUnLCAnPG91dGZpbGUubWFlPic=

> <r_lp_tautomer_probability>
1

> <r_epik_Ionization_Penalty>
0.00660334

> <r_epik_Ionization_Penalty_Charging>
0

> <r_epik_Ionization_Penalty_Neutral>
0.00660334

> <r_epik_State_Penalty>
0.00469459

> <r_epik_Charging_Adjusted_Penalty>
0.00469459

> <i_epik_Tot_Q>
0

> <i_epik_Tot_abs_Q>
0

> <r_epik_Metal_State_Penalty>
-0

> <b_epik_Metal_Only>
0

> <s_lp_Force_Field>
OPLS_2005

> <r_lp_Energy>
41.7702

> <b_lp_Chiralities_Consistent>
1

> <s_lp_Variant>
AV-unprocessed.smi:162-2

> <Gold.Version>
5.8.1

> <Gold.Id.Protein>
6NUR|6NUR_protein|mol2

> <Gold.PLP.Fitness>
40.3214

> <Gold.PLP.PLP>
-36.3313

> <Gold.PLP.part.hbond>
-1.0000

> <Gold.PLP.part.metal>
0.0000

> <Gold.PLP.part.buried>
-3.9307

> <Gold.PLP.part.nonpolar>
-32.1150

> <Gold.PLP.part.repulsive>
0.6023

> <Gold.PLP.ligand.clash>
0.0000

> <Gold.PLP.ligand.torsion>
0.2873

> <Gold.PLP.Chemscore.Hbond>
0.6400

> <Gold.PLP.Chemscore.CHOScore>
0.8272

> <Gold.PLP.Chemscore.Metal>
0.0000

> <Gold.Chemscore.Hbonds>
donor molecule, donor type, donor heavy atom, donor atom, acceptor molecule, acceptor atom, score
      L1  H    22    46       P1  7921  0.52
      L1  C    18    43       P1 10171  0.93

> <Gold.PLP.Chemscore.Internal.Correction>
0.1630

> <Gold.Rescore>
     Score         DG    S(hbond)    S(metal)    S(lipo)     H(rot)  DE(clash)    DE(int)     intcor
      6.65      -9.14       0.55        0.00      78.30       2.86       0.72       1.76       ----

> <Gold.Chemscore.Fitness>
6.6497

> <Gold.Chemscore.DG>
-9.1359

> <Gold.Chemscore.ZeroCoef>
-5.4800

> <Gold.Chemscore.Hbond>
0.5472

> <Gold.Chemscore.Metal>
0.0000

> <Gold.Chemscore.Lipo>
78.2955

> <Gold.Chemscore.Internal_Hbond>
0.0000

> <Gold.Chemscore.DEClash>
0.7226

> <Gold.Chemscore.DEInternal>
1.7635

> <Gold.Chemscore.Rot>
2.8642

> <Gold.Chemscore.Internal.Correction>
   9.000000E+99

> <Gold.Chemscore.Hbonds>
donor molecule, donor type, donor heavy atom, donor atom, acceptor molecule, acceptor atom, score
      L1  H    22    46       P1  7921  0.50

> <Gold.Chemscore.Hbond.Weighted>
-1.8277

> <Gold.Chemscore.Metal.Weighted>
-0.0000

> <Gold.Chemscore.Lipo.Weighted>
-9.1606

> <Gold.Chemscore.Internal_Hbond.Weighted>
0.0000

> <Gold.Chemscore.DEClash.Weighted>
0.7226

> <Gold.Chemscore.DEInternal.Weighted>
1.7635

> <Gold.Chemscore.Rot.Weighted>
7.3324

> <Gold.Chemscore.Internal.Correction.Weighted>
   9.000000E+99

> <Gold.Protein.RotatedTorsions>
[ 6907 6896 6895 6894 ] final -164.87 input  -60.11 | X-H torsion
[ 7974 7965 7964 7962 ] final  -82.00 input  175.53 | X-H torsion
[ 8008 7997 7996 7995 ] final -157.19 input   59.86 | X-H torsion
[ 10167 10162 10161 10158 ] final -150.92 input  -65.29 | X-H torsion
[ 10718 10713 10712 10709 ] final   35.94 input   66.30 | X-H torsion
[ 10763 10752 10751 10750 ] final  120.88 input  -60.55 | X-H torsion
[ 11005 11000 10999 10996 ] final  128.33 input  -57.11 | X-H torsion

> <Gold.Protein.ActiveResidues>
 VAL166  LYS551  ARG553  GLY616  TRP617  ASP618  TYR619  PRO620  LYS621  CYS622 
 ASP623  PHE694  ASN695  SER759  ASP760  ASP761  ALA762  ILE779  LEU786  VAL792 
 PHE793  MET794  SER795  GLU796  ALA797  LYS798  CYS799  TRP800  GLU811  SER814 

> <Gold.Protein.RotatedAtoms>
  151.4186  133.3705  159.2752 H   0  0  0  0  0  0  0  0  0  0  0  0  # atno 6907 bound_to 6896
  150.9310  134.8726  159.7562 H   0  0  0  0  0  0  0  0  0  0  0  0  # atno 6908 bound_to 6896
  152.5028  134.4131  159.9507 H   0  0  0  0  0  0  0  0  0  0  0  0  # atno 6909 bound_to 6896
  145.5392  140.9512  143.1560 H   0  0  0  0  0  0  0  0  0  0  0  0  # atno 7974 bound_to 7965
  155.7286  140.0799  157.2299 H   0  0  0  0  0  0  0  0  0  0  0  0  # atno 8008 bound_to 7997
  154.4036  140.1599  156.2538 H   0  0  0  0  0  0  0  0  0  0  0  0  # atno 8009 bound_to 7997
  155.9130  140.3402  155.6116 H   0  0  0  0  0  0  0  0  0  0  0  0  # atno 8010 bound_to 7997
  139.7312  143.8805  152.2535 H   0  0  0  0  0  0  0  0  0  0  0  0  # atno 10167 bound_to 10162
  157.3288  130.7487  149.6833 H   0  0  0  0  0  0  0  0  0  0  0  0  # atno 10718 bound_to 10713
  153.6054  135.3440  155.2960 H   0  0  0  0  0  0  0  0  0  0  0  0  # atno 10763 bound_to 10752
  154.8628  135.4237  154.2368 H   0  0  0  0  0  0  0  0  0  0  0  0  # atno 10764 bound_to 10752
  153.3206  135.7038  153.7106 H   0  0  0  0  0  0  0  0  0  0  0  0  # atno 10765 bound_to 10752
  139.9555  134.9614  156.8986 H   0  0  0  0  0  0  0  0  0  0  0  0  # atno 11005 bound_to 11000
  144.7586  139.7013  143.7244 LP  0  0  0  0  0  0  0  0  0  0  0  0  # atno 17320 bound_to 7965
  146.1993  139.5277  142.9754 LP  0  0  0  0  0  0  0  0  0  0  0  0  # atno 17321 bound_to 7965
  139.8729  144.7059  150.8966 LP  0  0  0  0  0  0  0  0  0  0  0  0  # atno 17342 bound_to 10162
  140.7771  143.3723  151.1626 LP  0  0  0  0  0  0  0  0  0  0  0  0  # atno 17343 bound_to 10162
  155.9693  130.4201  150.4408 LP  0  0  0  0  0  0  0  0  0  0  0  0  # atno 17370 bound_to 10713
  157.2436  131.0531  151.2421 LP  0  0  0  0  0  0  0  0  0  0  0  0  # atno 17371 bound_to 10713
  140.5620  134.0526  155.7402 LP  0  0  0  0  0  0  0  0  0  0  0  0  # atno 17394 bound_to 11000
  141.1225  133.9437  157.2700 LP  0  0  0  0  0  0  0  0  0  0  0  0  # atno 17395 bound_to 11000

$$$$
