AV-unprocessed.smi:734|AV-procd|sdf|3531|dock1
  -GOLD-   22720 0523D 1   1.00000     0.00000
 Structure written by MMmdl.
 38 39  0  0  0  0  0  0  0  0  3 V2000
  149.0267  141.3018  156.3956 C   0  0  0  0  0  0  0  0  0  0  0  0
  149.4638  141.0436  154.9464 C   0  0  0  0  0  0  0  0  0  0  0  0
  148.3237  141.2178  153.9325 C   0  0  0  0  0  0  0  0  0  0  0  0
  150.1581  139.7264  154.7927 C   0  0  0  0  0  0  0  0  0  0  0  0
  151.4611  139.6149  154.5166 N   0  0  0  0  0  0  0  0  0  0  0  0
  151.8681  138.2919  154.4308 N   0  0  0  0  0  0  0  0  0  0  0  0
  150.8739  137.4208  154.6517 C   0  0  0  0  0  0  0  0  0  0  0  0
  151.0613  136.0909  154.6201 N   0  5  0  0  0  0  0  0  0  0  0  0
  150.1041  135.2650  155.0978 C   0  0  0  0  0  0  0  0  0  0  0  0
  150.1613  134.6025  156.1367 O   0  0  0  0  0  0  0  0  0  0  0  0
  149.0072  135.2065  154.3293 N   0  0  0  0  0  0  0  0  0  0  0  0
  147.8177  134.4128  154.6120 C   0  0  0  0  0  0  0  0  0  0  0  0
  147.3073  133.6993  153.3471 C   0  0  0  0  0  0  0  0  0  0  0  0
  146.8203  134.6574  152.3290 N   0  3  0  0  0  0  0  0  0  0  0  0
  145.8723  135.6761  152.8623 C   0  0  0  0  0  0  0  0  0  0  0  0
  144.8605  135.8174  151.7604 C   0  0  0  0  0  0  0  0  0  0  0  0
  145.0538  134.9161  150.8043 C   0  0  0  0  0  0  0  0  0  0  0  0
  146.2259  134.0287  151.1142 C   0  0  0  0  0  0  0  0  0  0  0  0
  149.3199  138.1922  154.9636 S   0  0  0  0  0  0  0  0  0  0  0  0
  149.8769  141.2496  157.0766 H   0  0  0  0  0  0  0  0  0  0  0  0
  148.2908  140.5671  156.7245 H   0  0  0  0  0  0  0  0  0  0  0  0
  148.5788  142.2902  156.5010 H   0  0  0  0  0  0  0  0  0  0  0  0
  150.2034  141.8093  154.7088 H   0  0  0  0  0  0  0  0  0  0  0  0
  148.6883  141.1075  152.9108 H   0  0  0  0  0  0  0  0  0  0  0  0
  147.8698  142.2053  154.0171 H   0  0  0  0  0  0  0  0  0  0  0  0
  147.5389  140.4769  154.0877 H   0  0  0  0  0  0  0  0  0  0  0  0
  149.0023  135.7596  153.4846 H   0  0  0  0  0  0  0  0  0  0  0  0
  148.0735  133.6786  155.3761 H   0  0  0  0  0  0  0  0  0  0  0  0
  147.0477  135.0542  155.0436 H   0  0  0  0  0  0  0  0  0  0  0  0
  148.0844  133.0717  152.9081 H   0  0  0  0  0  0  0  0  0  0  0  0
  146.4873  133.0346  153.6236 H   0  0  0  0  0  0  0  0  0  0  0  0
  145.3741  135.3399  153.7729 H   0  0  0  0  0  0  0  0  0  0  0  0
  146.3840  136.6182  153.0605 H   0  0  0  0  0  0  0  0  0  0  0  0
  144.0719  136.5551  151.7817 H   0  0  0  0  0  0  0  0  0  0  0  0
  144.4491  134.7975  149.9172 H   0  0  0  0  0  0  0  0  0  0  0  0
  146.9428  134.0119  150.2930 H   0  0  0  0  0  0  0  0  0  0  0  0
  145.8741  133.0134  151.3029 H   0  0  0  0  0  0  0  0  0  0  0  0
  147.6237  135.1783  152.0078 H   0  0  0  0  0  0  0  0  0  0  0  0
  1  2  1  0  0  0  0
  1 20  1  0  0  0  0
  1 21  1  0  0  0  0
  1 22  1  0  0  0  0
  2  3  1  0  0  0  0
  2  4  1  0  0  0  0
  2 23  1  0  0  0  0
  3 24  1  0  0  0  0
  3 25  1  0  0  0  0
  3 26  1  0  0  0  0
  4 19  1  0  0  0  0
  4  5  2  0  0  0  0
  5  6  1  0  0  0  0
  6  7  2  0  0  0  0
  7  8  1  0  0  0  0
  7 19  1  0  0  0  0
  8  9  1  0  0  0  0
  9 10  2  0  0  0  0
  9 11  1  0  0  0  0
 11 12  1  0  0  0  0
 11 27  1  0  0  0  0
 12 13  1  0  0  0  0
 12 28  1  0  0  0  0
 12 29  1  0  0  0  0
 13 14  1  0  0  0  0
 13 30  1  0  0  0  0
 13 31  1  0  0  0  0
 14 18  1  0  0  0  0
 14 15  1  0  0  0  0
 14 38  1  0  0  0  0
 15 16  1  0  0  0  0
 15 32  1  0  0  0  0
 15 33  1  0  0  0  0
 16 17  2  0  0  0  0
 16 34  1  0  0  0  0
 17 18  1  0  0  0  0
 17 35  1  0  0  0  0
 18 36  1  0  0  0  0
 18 37  1  0  0  0  0
M  CHG  1   8  -1
M  CHG  1  14   1
M  END
> <s_m_source_file>
AV-unprocessed.smi

> <i_m_source_file_index>
734

> <i_lp_mmshare_version>
43012

> <i_f3d_flags>
0

> <s_epik_input>
W0NIM11bQ0hdKFtDSDNdKWMxbm5jKHMxKVtOSF1DKD1PKVtOSF1bQ0gyXVtDSDJdTjJbQ0gyXVtDSF09W0NIXVtDSDJdMg==

> <s_epik_cmdline>
J2VwaWtfcHl0aG9uJywgJy1waCcsICc3LjAnLCAnLXRuJywgJzgnLCAnLW1hJywgJzIwMCcsICctbWV0YWxfYmluZGluZycsICctaW1hZScsICc8aW5maWxlLm1hZT4nLCAnLW9tYWUnLCAnPG91dGZpbGUubWFlPic=

> <r_lp_tautomer_probability>
1

> <r_epik_Ionization_Penalty>
3.04352

> <r_epik_Ionization_Penalty_Charging>
2.92732

> <r_epik_Ionization_Penalty_Neutral>
0.116198

> <r_epik_State_Penalty>
2.92347

> <r_epik_Charging_Adjusted_Penalty>
5.85079

> <i_epik_Tot_Q>
0

> <i_epik_Tot_abs_Q>
2

> <r_epik_Metal_State_Penalty>
0.448048

> <b_epik_Metal_Only>
1

> <s_lp_Force_Field>
OPLS_2005

> <r_lp_Energy>
6.61646

> <b_lp_Chiralities_Consistent>
1

> <s_lp_Variant>
AV-unprocessed.smi:734-2

> <Gold.Version>
5.8.1

> <Gold.Id.Protein>
6NUR|6NUR_protein|mol2

> <Gold.PLP.Fitness>
47.4719

> <Gold.PLP.PLP>
-30.9900

> <Gold.PLP.part.hbond>
-4.0000

> <Gold.PLP.part.metal>
0.0000

> <Gold.PLP.part.buried>
-4.7742

> <Gold.PLP.part.nonpolar>
-23.4959

> <Gold.PLP.part.repulsive>
0.4149

> <Gold.PLP.ligand.clash>
0.0000

> <Gold.PLP.ligand.torsion>
0.9359

> <Gold.PLP.Chemscore.Hbond>
6.0000

> <Gold.PLP.Chemscore.CHOScore>
0.0000

> <Gold.PLP.Chemscore.Metal>
0.0000

> <Gold.Chemscore.Hbonds>
donor molecule, donor type, donor heavy atom, donor atom, acceptor molecule, acceptor atom, score
      L1  H    11    27       P1  7948  1.00
      L1  H    14    38       P1  7948  2.00
      P1  H  7989  7998       L1     5  1.00
      P1  H 10752 10763       L1     8  2.00

> <Gold.PLP.Chemscore.Internal.Correction>
0.3537

> <Gold.Rescore>
     Score         DG    S(hbond)    S(metal)    S(lipo)     H(rot)  DE(clash)    DE(int)     intcor
     18.70     -19.73       3.63        0.00      55.01       1.68       0.11       0.92       ----

> <Gold.Chemscore.Fitness>
18.6961

> <Gold.Chemscore.DG>
-19.7313

> <Gold.Chemscore.ZeroCoef>
-5.4800

> <Gold.Chemscore.Hbond>
3.6306

> <Gold.Chemscore.Metal>
0.0000

> <Gold.Chemscore.Lipo>
55.0082

> <Gold.Chemscore.Internal_Hbond>
0.0000

> <Gold.Chemscore.DEClash>
0.1103

> <Gold.Chemscore.DEInternal>
0.9249

> <Gold.Chemscore.Rot>
1.6839

> <Gold.Chemscore.Internal.Correction>
   9.000000E+99

> <Gold.Chemscore.Hbonds>
donor molecule, donor type, donor heavy atom, donor atom, acceptor molecule, acceptor atom, score
      L1  H    11    27       P1  7948  0.88
      L1  H    14    38       P1  7948  0.94
      P1  H  7989  7998       L1     5  0.30
      P1  H 10752 10763       L1     8  0.81

> <Gold.Chemscore.Hbond.Weighted>
-12.1261

> <Gold.Chemscore.Metal.Weighted>
-0.0000

> <Gold.Chemscore.Lipo.Weighted>
-6.4360

> <Gold.Chemscore.Internal_Hbond.Weighted>
0.0000

> <Gold.Chemscore.DEClash.Weighted>
0.1103

> <Gold.Chemscore.DEInternal.Weighted>
0.9249

> <Gold.Chemscore.Rot.Weighted>
4.3108

> <Gold.Chemscore.Internal.Correction.Weighted>
   9.000000E+99

> <Gold.Protein.RotatedTorsions>
[ 6907 6896 6895 6894 ] final  -42.00 input  -60.11 | X-H torsion
[ 7974 7965 7964 7962 ] final  -38.52 input  175.53 | X-H torsion
[ 8008 7997 7996 7995 ] final   24.91 input   59.86 | X-H torsion
[ 10167 10162 10161 10158 ] final  118.06 input  -65.29 | X-H torsion
[ 10718 10713 10712 10709 ] final  -67.33 input   66.30 | X-H torsion
[ 10763 10752 10751 10750 ] final   48.00 input  -60.55 | X-H torsion
[ 11005 11000 10999 10996 ] final   -3.83 input  -57.11 | X-H torsion

> <Gold.Protein.ActiveResidues>
 VAL166  LYS551  ARG553  GLY616  TRP617  ASP618  TYR619  PRO620  LYS621  CYS622 
 ASP623  PHE694  ASN695  SER759  ASP760  ASP761  ALA762  ILE779  LEU786  VAL792 
 PHE793  MET794  SER795  GLU796  ALA797  LYS798  CYS799  TRP800  GLU811  SER814 

> <Gold.Protein.RotatedAtoms>
  150.9602  134.8991  159.7725 H   0  0  0  0  0  0  0  0  0  0  0  0  # atno 6907 bound_to 6896
  152.5153  134.3683  159.9319 H   0  0  0  0  0  0  0  0  0  0  0  0  # atno 6908 bound_to 6896
  151.3695  133.3819  159.2733 H   0  0  0  0  0  0  0  0  0  0  0  0  # atno 6909 bound_to 6896
  146.0479  140.6521  142.9056 H   0  0  0  0  0  0  0  0  0  0  0  0  # atno 7974 bound_to 7965
  155.0036  140.3128  155.4857 H   0  0  0  0  0  0  0  0  0  0  0  0  # atno 8008 bound_to 7997
  156.2921  140.2227  156.5088 H   0  0  0  0  0  0  0  0  0  0  0  0  # atno 8009 bound_to 7997
  154.7596  140.0460  157.0950 H   0  0  0  0  0  0  0  0  0  0  0  0  # atno 8010 bound_to 7997
  139.6137  144.7087  151.2787 H   0  0  0  0  0  0  0  0  0  0  0  0  # atno 10167 bound_to 10162
  156.0563  130.4276  150.1839 H   0  0  0  0  0  0  0  0  0  0  0  0  # atno 10718 bound_to 10713
  152.9795  135.5958  154.3854 H   0  0  0  0  0  0  0  0  0  0  0  0  # atno 10763 bound_to 10752
  154.3514  135.2767  155.2371 H   0  0  0  0  0  0  0  0  0  0  0  0  # atno 10764 bound_to 10752
  154.4409  135.6013  153.6184 H   0  0  0  0  0  0  0  0  0  0  0  0  # atno 10765 bound_to 10752
  140.6736  133.9215  155.8510 H   0  0  0  0  0  0  0  0  0  0  0  0  # atno 11005 bound_to 11000
  144.7107  140.4027  143.7083 LP  0  0  0  0  0  0  0  0  0  0  0  0  # atno 17320 bound_to 7965
  145.6775  139.1611  143.2720 LP  0  0  0  0  0  0  0  0  0  0  0  0  # atno 17321 bound_to 7965
  140.7336  143.6789  150.8018 LP  0  0  0  0  0  0  0  0  0  0  0  0  # atno 17342 bound_to 10162
  140.0388  143.5367  152.2727 LP  0  0  0  0  0  0  0  0  0  0  0  0  # atno 17343 bound_to 10162
  156.9914  130.9894  151.3413 LP  0  0  0  0  0  0  0  0  0  0  0  0  # atno 17370 bound_to 10713
  157.5536  130.8198  149.8176 LP  0  0  0  0  0  0  0  0  0  0  0  0  # atno 17371 bound_to 10713
  141.0373  134.0672  157.3944 LP  0  0  0  0  0  0  0  0  0  0  0  0  # atno 17394 bound_to 11000
  139.8974  135.0150  156.7097 LP  0  0  0  0  0  0  0  0  0  0  0  0  # atno 17395 bound_to 11000

$$$$
