AV-unprocessed.smi:1492|AV-procd|sdf|6046|dock3
  -GOLD-   22720 6163D 1   1.00000     0.00000
 Structure written by MMmdl.
 52 53  0  0  0  0  0  0  0  0  3 V2000
  149.1947  131.6214  153.4287 C   0  0  0  0  0  0  0  0  0  0  0  0
  149.4840  133.1026  153.7350 C   0  0  0  0  0  0  0  0  0  0  0  0
  148.3264  133.9487  154.3659 C   0  0  1  0  0  0  0  0  0  0  0  0
  147.4732  133.0290  155.2739 C   0  0  0  0  0  0  0  0  0  0  0  0
  148.9397  135.0809  155.2488 C   0  0  0  0  0  0  0  0  0  0  0  0
  149.6713  136.0503  154.4423 N   0  0  0  0  0  0  0  0  0  0  0  0
  150.8623  136.5944  154.7303 C   0  0  0  0  0  0  0  0  0  0  0  0
  151.6092  136.1803  155.6154 O   0  0  0  0  0  0  0  0  0  0  0  0
  151.2245  137.8499  153.9348 C   0  0  0  0  0  0  0  0  0  0  0  0
  151.0330  139.1496  154.7182 C   0  0  0  0  0  0  0  0  0  0  0  0
  149.8508  139.8268  154.7869 C   0  0  0  0  0  0  0  0  0  0  0  0
  148.6038  139.4000  154.0326 C   0  0  0  0  0  0  0  0  0  0  0  0
  149.7124  140.9626  155.6024 N   0  0  0  0  0  0  0  0  0  0  0  0
  150.7005  141.3523  156.3137 C   0  0  0  0  0  0  0  0  0  0  0  0
  150.5365  142.5636  157.2064 C   0  0  0  0  0  0  0  0  0  0  0  0
  151.9280  140.7291  156.3296 N   0  5  0  0  0  0  0  0  0  0  0  0
  152.1546  139.6475  155.5326 C   0  0  0  0  0  0  0  0  0  0  0  0
  153.2448  139.0795  155.4949 O   0  0  0  0  0  0  0  0  0  0  0  0
  147.4794  134.5569  153.2673 N   0  3  0  0  0  0  0  0  0  0  0  0
  146.9487  133.6112  152.2410 C   0  0  0  0  0  0  0  0  0  0  0  0
  146.2077  134.3595  151.1168 C   0  0  0  0  0  0  0  0  0  0  0  0
  145.1845  135.1813  151.6581 O   0  0  0  0  0  0  0  0  0  0  0  0
  145.7173  136.1589  152.5384 C   0  0  0  0  0  0  0  0  0  0  0  0
  146.3772  135.4494  153.7290 C   0  0  0  0  0  0  0  0  0  0  0  0
  150.0428  131.1739  152.9103 H   0  0  0  0  0  0  0  0  0  0  0  0
  148.3230  131.4953  152.7878 H   0  0  0  0  0  0  0  0  0  0  0  0
  149.0401  131.0387  154.3364 H   0  0  0  0  0  0  0  0  0  0  0  0
  150.3612  133.1401  154.3830 H   0  0  0  0  0  0  0  0  0  0  0  0
  149.7905  133.5529  152.7906 H   0  0  0  0  0  0  0  0  0  0  0  0
  148.0784  132.5571  156.0471 H   0  0  0  0  0  0  0  0  0  0  0  0
  146.9945  132.2289  154.7097 H   0  0  0  0  0  0  0  0  0  0  0  0
  146.6927  133.5782  155.8003 H   0  0  0  0  0  0  0  0  0  0  0  0
  148.1877  135.5727  155.8645 H   0  0  0  0  0  0  0  0  0  0  0  0
  149.6351  134.6646  155.9768 H   0  0  0  0  0  0  0  0  0  0  0  0
  149.1592  136.4590  153.6735 H   0  0  0  0  0  0  0  0  0  0  0  0
  152.2570  137.7781  153.5894 H   0  0  0  0  0  0  0  0  0  0  0  0
  150.6210  137.8601  153.0281 H   0  0  0  0  0  0  0  0  0  0  0  0
  148.7756  139.4463  152.9571 H   0  0  0  0  0  0  0  0  0  0  0  0
  147.7603  140.0515  154.2641 H   0  0  0  0  0  0  0  0  0  0  0  0
  148.3192  138.3816  154.2966 H   0  0  0  0  0  0  0  0  0  0  0  0
  151.4207  143.2006  157.1581 H   0  0  0  0  0  0  0  0  0  0  0  0
  150.3918  142.2497  158.2405 H   0  0  0  0  0  0  0  0  0  0  0  0
  149.6737  143.1586  156.9035 H   0  0  0  0  0  0  0  0  0  0  0  0
  147.7466  133.0467  151.7620 H   0  0  0  0  0  0  0  0  0  0  0  0
  146.2758  132.8928  152.7099 H   0  0  0  0  0  0  0  0  0  0  0  0
  146.8957  134.9642  150.5272 H   0  0  0  0  0  0  0  0  0  0  0  0
  145.7560  133.6443  150.4292 H   0  0  0  0  0  0  0  0  0  0  0  0
  146.4278  136.8032  152.0186 H   0  0  0  0  0  0  0  0  0  0  0  0
  144.9051  136.7973  152.8869 H   0  0  0  0  0  0  0  0  0  0  0  0
  145.6174  134.8717  154.2554 H   0  0  0  0  0  0  0  0  0  0  0  0
  146.7332  136.2100  154.4191 H   0  0  0  0  0  0  0  0  0  0  0  0
  148.1139  135.1568  152.7583 H   0  0  0  0  0  0  0  0  0  0  0  0
  1  2  1  0  0  0  0
  1 25  1  0  0  0  0
  1 26  1  0  0  0  0
  1 27  1  0  0  0  0
  2  3  1  0  0  0  0
  2 28  1  0  0  0  0
  2 29  1  0  0  0  0
  3  4  1  0  0  0  0
  3  5  1  0  0  0  0
  3 19  1  0  0  0  0
  4 30  1  0  0  0  0
  4 31  1  0  0  0  0
  4 32  1  0  0  0  0
  5  6  1  0  0  0  0
  5 33  1  0  0  0  0
  5 34  1  0  0  0  0
  6  7  1  0  0  0  0
  6 35  1  0  0  0  0
  7  8  2  0  0  0  0
  7  9  1  0  0  0  0
  9 10  1  0  0  0  0
  9 36  1  0  0  0  0
  9 37  1  0  0  0  0
 10 17  1  0  0  0  0
 10 11  2  0  0  0  0
 11 12  1  0  0  0  0
 11 13  1  0  0  0  0
 12 38  1  0  0  0  0
 12 39  1  0  0  0  0
 12 40  1  0  0  0  0
 13 14  2  0  0  0  0
 14 15  1  0  0  0  0
 14 16  1  0  0  0  0
 15 41  1  0  0  0  0
 15 42  1  0  0  0  0
 15 43  1  0  0  0  0
 16 17  1  0  0  0  0
 17 18  2  0  0  0  0
 19 24  1  0  0  0  0
 19 20  1  0  0  0  0
 19 52  1  0  0  0  0
 20 21  1  0  0  0  0
 20 44  1  0  0  0  0
 20 45  1  0  0  0  0
 21 22  1  0  0  0  0
 21 46  1  0  0  0  0
 21 47  1  0  0  0  0
 22 23  1  0  0  0  0
 23 24  1  0  0  0  0
 23 48  1  0  0  0  0
 23 49  1  0  0  0  0
 24 50  1  0  0  0  0
 24 51  1  0  0  0  0
M  CHG  1  16  -1
M  CHG  1  19   1
M  END
> <s_m_source_file>
AV-unprocessed.smi

> <i_m_source_file_index>
1492

> <i_lp_mmshare_version>
43012

> <i_f3d_flags>
0

> <s_epik_input>
W0NIMl0xW0NIMl1PW0NIMl1bQ0gyXU4xW0NAQF0oW0NIM10pKFtDSDJdW0NIM10pW0NIMl1bTkhdQyg9TylbQ0gyXWMyYyhbQ0gzXSluYyhbQ0gzXSlbbkhdYzI9Tw==

> <s_epik_cmdline>
J2VwaWtfcHl0aG9uJywgJy1waCcsICc3LjAnLCAnLXRuJywgJzgnLCAnLW1hJywgJzIwMCcsICctbWV0YWxfYmluZGluZycsICctaW1hZScsICc8aW5maWxlLm1hZT4nLCAnLW9tYWUnLCAnPG91dGZpbGUubWFlPic=

> <r_lp_tautomer_probability>
0.839158

> <r_epik_Ionization_Penalty>
6.90614

> <r_epik_Ionization_Penalty_Charging>
0.570079

> <r_epik_Ionization_Penalty_Neutral>
6.33607

> <r_epik_State_Penalty>
4.81716

> <r_epik_Charging_Adjusted_Penalty>
5.38724

> <i_epik_Tot_Q>
0

> <i_epik_Tot_abs_Q>
2

> <r_epik_Metal_State_Penalty>
1.25629

> <b_epik_Metal_Only>
1

> <s_lp_Force_Field>
OPLS_2005

> <r_lp_Energy>
28.2979

> <b_lp_Chiralities_Consistent>
1

> <s_lp_Variant>
AV-unprocessed.smi:1492-11

> <Gold.Version>
5.8.1

> <Gold.Id.Protein>
6NUR|6NUR_protein|mol2

> <Gold.PLP.Fitness>
49.9951

> <Gold.PLP.PLP>
-37.9322

> <Gold.PLP.part.hbond>
-4.2462

> <Gold.PLP.part.metal>
0.0000

> <Gold.PLP.part.buried>
-2.7344

> <Gold.PLP.part.nonpolar>
-31.7745

> <Gold.PLP.part.repulsive>
0.3262

> <Gold.PLP.ligand.clash>
0.0000

> <Gold.PLP.ligand.torsion>
1.2773

> <Gold.PLP.Chemscore.Hbond>
4.8160

> <Gold.PLP.Chemscore.CHOScore>
0.0000

> <Gold.PLP.Chemscore.Metal>
0.0000

> <Gold.Chemscore.Hbonds>
donor molecule, donor type, donor heavy atom, donor atom, acceptor molecule, acceptor atom, score
      L1  H     6    35       P1  7948  0.77
      L1  H    19    52       P1  7948  2.00
      P1  H  7997  8009       L1    18  1.00
      P1  H 10752 10765       L1     8  1.00

> <Gold.PLP.Chemscore.Internal.Correction>
0.1696

> <Gold.Rescore>
     Score         DG    S(hbond)    S(metal)    S(lipo)     H(rot)  DE(clash)    DE(int)     intcor
     18.58     -19.94       3.50        0.00      70.27       2.12       0.04       1.32       ----

> <Gold.Chemscore.Fitness>
18.5814

> <Gold.Chemscore.DG>
-19.9399

> <Gold.Chemscore.ZeroCoef>
-5.4800

> <Gold.Chemscore.Hbond>
3.4954

> <Gold.Chemscore.Metal>
0.0000

> <Gold.Chemscore.Lipo>
70.2680

> <Gold.Chemscore.Internal_Hbond>
0.0000

> <Gold.Chemscore.DEClash>
0.0423

> <Gold.Chemscore.DEInternal>
1.3162

> <Gold.Chemscore.Rot>
2.1235

> <Gold.Chemscore.Internal.Correction>
   9.000000E+99

> <Gold.Chemscore.Hbonds>
donor molecule, donor type, donor heavy atom, donor atom, acceptor molecule, acceptor atom, score
      L1  H     6    35       P1  7948  0.73
      L1  H    19    52       P1  7948  0.94
      P1  H  7997  8009       L1    18  0.65
      P1  H 10752 10765       L1     8  0.78

> <Gold.Chemscore.Hbond.Weighted>
-11.6746

> <Gold.Chemscore.Metal.Weighted>
-0.0000

> <Gold.Chemscore.Lipo.Weighted>
-8.2214

> <Gold.Chemscore.Internal_Hbond.Weighted>
0.0000

> <Gold.Chemscore.DEClash.Weighted>
0.0423

> <Gold.Chemscore.DEInternal.Weighted>
1.3162

> <Gold.Chemscore.Rot.Weighted>
5.4360

> <Gold.Chemscore.Internal.Correction.Weighted>
   9.000000E+99

> <Gold.Protein.RotatedTorsions>
[ 6907 6896 6895 6894 ] final -172.02 input  -60.11 | X-H torsion
[ 7974 7965 7964 7962 ] final -110.52 input  175.53 | X-H torsion
[ 8008 7997 7996 7995 ] final -147.73 input   59.86 | X-H torsion
[ 10167 10162 10161 10158 ] final  -65.39 input  -65.29 | X-H torsion
[ 10718 10713 10712 10709 ] final   21.76 input   66.30 | X-H torsion
[ 10763 10752 10751 10750 ] final -157.98 input  -60.55 | X-H torsion
[ 11005 11000 10999 10996 ] final  104.51 input  -57.11 | X-H torsion

> <Gold.Protein.ActiveResidues>
 VAL166  LYS551  ARG553  GLY616  TRP617  ASP618  TYR619  PRO620  LYS621  CYS622 
 ASP623  PHE694  ASN695  SER759  ASP760  ASP761  ALA762  ILE779  LEU786  VAL792 
 PHE793  MET794  SER795  GLU796  ALA797  LYS798  CYS799  TRP800  GLU811  SER814 

> <Gold.Protein.RotatedAtoms>
  151.5332  133.3445  159.2921 H   0  0  0  0  0  0  0  0  0  0  0  0  # atno 6907 bound_to 6896
  150.8580  134.7927  159.7072 H   0  0  0  0  0  0  0  0  0  0  0  0  # atno 6908 bound_to 6896
  152.4608  134.5196  159.9830 H   0  0  0  0  0  0  0  0  0  0  0  0  # atno 6909 bound_to 6896
  145.1672  140.8908  143.3556 H   0  0  0  0  0  0  0  0  0  0  0  0  # atno 7974 bound_to 7965
  155.5803  140.0642  157.2785 H   0  0  0  0  0  0  0  0  0  0  0  0  # atno 8008 bound_to 7997
  154.4334  140.1853  156.1016 H   0  0  0  0  0  0  0  0  0  0  0  0  # atno 8009 bound_to 7997
  156.0310  140.3306  155.7143 H   0  0  0  0  0  0  0  0  0  0  0  0  # atno 8010 bound_to 7997
  140.5733  143.2319  151.6494 H   0  0  0  0  0  0  0  0  0  0  0  0  # atno 10167 bound_to 10162
  157.1429  130.6640  149.5987 H   0  0  0  0  0  0  0  0  0  0  0  0  # atno 10718 bound_to 10713
  154.7593  135.3113  154.8409 H   0  0  0  0  0  0  0  0  0  0  0  0  # atno 10763 bound_to 10752
  153.9175  135.6799  153.4753 H   0  0  0  0  0  0  0  0  0  0  0  0  # atno 10764 bound_to 10752
  153.1192  135.4830  154.9098 H   0  0  0  0  0  0  0  0  0  0  0  0  # atno 10765 bound_to 10752
  139.8792  134.9303  156.5372 H   0  0  0  0  0  0  0  0  0  0  0  0  # atno 11005 bound_to 11000
  145.0269  139.3374  143.6044 LP  0  0  0  0  0  0  0  0  0  0  0  0  # atno 17320 bound_to 7965
  146.3474  139.9592  142.8719 LP  0  0  0  0  0  0  0  0  0  0  0  0  # atno 17321 bound_to 7965
  139.5129  144.3461  152.0695 LP  0  0  0  0  0  0  0  0  0  0  0  0  # atno 17342 bound_to 10162
  140.2601  144.4076  150.6189 LP  0  0  0  0  0  0  0  0  0  0  0  0  # atno 17343 bound_to 10162
  155.9785  130.4771  150.6659 LP  0  0  0  0  0  0  0  0  0  0  0  0  # atno 17370 bound_to 10713
  157.4291  131.0847  151.1056 LP  0  0  0  0  0  0  0  0  0  0  0  0  # atno 17371 bound_to 10713
  140.8337  133.8259  155.9008 LP  0  0  0  0  0  0  0  0  0  0  0  0  # atno 17394 bound_to 11000
  140.9304  134.2029  157.4867 LP  0  0  0  0  0  0  0  0  0  0  0  0  # atno 17395 bound_to 11000

$$$$
