AV-unprocessed.smi:1597|AV-procd|sdf|6420|dock8
  -GOLD-   22720 7 53D 1   1.00000     0.00000
 Structure written by MMmdl.
 53 54  0  0  0  0  0  0  0  0  2 V2000
  148.0124  134.7154  155.0469 C   0  0  0  0  0  0  0  0  0  0  0  0
  147.6411  134.6406  153.6082 N   0  3  0  0  0  0  0  0  0  0  0  0
  147.9921  133.2983  153.0650 C   0  0  0  0  0  0  0  0  0  0  0  0
  146.2658  135.1653  153.2536 C   0  0  0  0  0  0  0  0  0  0  0  0
  146.1680  136.6454  153.7545 C   0  0  0  0  0  0  0  0  0  0  0  0
  147.3293  137.4536  153.3888 N   0  0  0  0  0  0  0  0  0  0  0  0
  147.5739  138.7284  153.7331 C   0  0  0  0  0  0  0  0  0  0  0  0
  146.8154  139.3860  154.4429 O   0  0  0  0  0  0  0  0  0  0  0  0
  148.8507  139.3871  153.1826 C   0  0  0  0  0  0  0  0  0  0  0  0
  149.9724  139.4284  154.1347 N   0  0  0  0  0  0  0  0  0  0  0  0
  150.9466  138.4478  154.0803 C   0  0  0  0  0  0  0  0  0  0  0  0
  151.9943  138.3900  154.9308 C   0  0  0  0  0  0  0  0  0  0  0  0
  152.1576  139.3858  155.9820 C   0  0  0  0  0  0  0  0  0  0  0  0
  153.0956  139.3811  156.7802 O   0  0  0  0  0  0  0  0  0  0  0  0
  151.1478  140.3740  156.0196 N   0  0  0  0  0  0  0  0  0  0  0  0
  151.2746  141.3855  157.0481 C   0  0  0  0  0  0  0  0  0  0  0  0
  150.0566  140.4354  155.1217 C   0  0  0  0  0  0  0  0  0  0  0  0
  149.1959  141.3156  155.1847 O   0  0  0  0  0  0  0  0  0  0  0  0
  146.0887  135.1408  151.6971 C   0  0  0  0  0  0  0  0  0  0  0  0
  144.7185  134.7807  151.0908 C   0  0  0  0  0  0  0  0  0  0  0  0
  143.5015  135.5302  151.6464 C   0  0  0  0  0  0  0  0  0  0  0  0
  142.8881  134.8236  152.8608 C   0  0  0  0  0  0  0  0  0  0  0  0
  143.7462  134.8728  154.1295 C   0  0  0  0  0  0  0  0  0  0  0  0
  145.1782  134.3018  153.9905 C   0  0  0  0  0  0  0  0  0  0  0  0
  147.3025  134.1765  155.6745 H   0  0  0  0  0  0  0  0  0  0  0  0
  148.0809  135.7418  155.4047 H   0  0  0  0  0  0  0  0  0  0  0  0
  148.9971  134.2771  155.2122 H   0  0  0  0  0  0  0  0  0  0  0  0
  147.4689  132.4962  153.5849 H   0  0  0  0  0  0  0  0  0  0  0  0
  149.0601  133.1192  153.1931 H   0  0  0  0  0  0  0  0  0  0  0  0
  147.7950  133.1918  152.0015 H   0  0  0  0  0  0  0  0  0  0  0  0
  145.2534  137.1397  153.4315 H   0  0  0  0  0  0  0  0  0  0  0  0
  146.0945  136.6776  154.8392 H   0  0  0  0  0  0  0  0  0  0  0  0
  148.0190  136.9980  152.8081 H   0  0  0  0  0  0  0  0  0  0  0  0
  149.1560  138.8400  152.2894 H   0  0  0  0  0  0  0  0  0  0  0  0
  148.6056  140.3915  152.8342 H   0  0  0  0  0  0  0  0  0  0  0  0
  150.8658  137.6838  153.3207 H   0  0  0  0  0  0  0  0  0  0  0  0
  152.7205  137.5964  154.8331 H   0  0  0  0  0  0  0  0  0  0  0  0
  150.3952  142.0273  157.0848 H   0  0  0  0  0  0  0  0  0  0  0  0
  152.1634  141.9722  156.8103 H   0  0  0  0  0  0  0  0  0  0  0  0
  151.3815  140.8710  158.0050 H   0  0  0  0  0  0  0  0  0  0  0  0
  146.4081  136.0988  151.2849 H   0  0  0  0  0  0  0  0  0  0  0  0
  146.7723  134.4169  151.2557 H   0  0  0  0  0  0  0  0  0  0  0  0
  144.7784  134.9803  150.0202 H   0  0  0  0  0  0  0  0  0  0  0  0
  144.5537  133.7050  151.1643 H   0  0  0  0  0  0  0  0  0  0  0  0
  143.7345  136.5729  151.8585 H   0  0  0  0  0  0  0  0  0  0  0  0
  142.7393  135.5556  150.8667 H   0  0  0  0  0  0  0  0  0  0  0  0
  141.9221  135.2794  153.0811 H   0  0  0  0  0  0  0  0  0  0  0  0
  142.6713  133.7851  152.6080 H   0  0  0  0  0  0  0  0  0  0  0  0
  143.7463  135.8812  154.5387 H   0  0  0  0  0  0  0  0  0  0  0  0
  143.2294  134.2800  154.8852 H   0  0  0  0  0  0  0  0  0  0  0  0
  145.1079  133.3118  153.5382 H   0  0  0  0  0  0  0  0  0  0  0  0
  145.5212  134.1267  155.0116 H   0  0  0  0  0  0  0  0  0  0  0  0
  148.2767  135.2761  153.1469 H   0  0  0  0  0  0  0  0  0  0  0  0
  1  2  1  0  0  0  0
  1 25  1  0  0  0  0
  1 26  1  0  0  0  0
  1 27  1  0  0  0  0
  2  3  1  0  0  0  0
  2  4  1  0  0  0  0
  2 53  1  0  0  0  0
  3 28  1  0  0  0  0
  3 29  1  0  0  0  0
  3 30  1  0  0  0  0
  4 24  1  0  0  0  0
  4  5  1  0  0  0  0
  4 19  1  0  0  0  0
  5  6  1  0  0  0  0
  5 31  1  0  0  0  0
  5 32  1  0  0  0  0
  6  7  1  0  0  0  0
  6 33  1  0  0  0  0
  7  8  2  0  0  0  0
  7  9  1  0  0  0  0
  9 10  1  0  0  0  0
  9 34  1  0  0  0  0
  9 35  1  0  0  0  0
 10 17  1  0  0  0  0
 10 11  1  0  0  0  0
 11 12  2  0  0  0  0
 11 36  1  0  0  0  0
 12 13  1  0  0  0  0
 12 37  1  0  0  0  0
 13 14  2  0  0  0  0
 13 15  1  0  0  0  0
 15 16  1  0  0  0  0
 15 17  1  0  0  0  0
 16 38  1  0  0  0  0
 16 39  1  0  0  0  0
 16 40  1  0  0  0  0
 17 18  2  0  0  0  0
 19 20  1  0  0  0  0
 19 41  1  0  0  0  0
 19 42  1  0  0  0  0
 20 21  1  0  0  0  0
 20 43  1  0  0  0  0
 20 44  1  0  0  0  0
 21 22  1  0  0  0  0
 21 45  1  0  0  0  0
 21 46  1  0  0  0  0
 22 23  1  0  0  0  0
 22 47  1  0  0  0  0
 22 48  1  0  0  0  0
 23 24  1  0  0  0  0
 23 49  1  0  0  0  0
 23 50  1  0  0  0  0
 24 51  1  0  0  0  0
 24 52  1  0  0  0  0
M  CHG  1   2   1
M  END
> <s_m_source_file>
AV-unprocessed.smi

> <i_m_source_file_index>
1597

> <i_lp_mmshare_version>
43012

> <i_f3d_flags>
0

> <s_epik_input>
W0NIMl0xW0NIMl1bQ0gyXVtDSDJdW0NIMl1bQ0gyXUMxKE4oW0NIM10pW0NIM10pW0NIMl1bTkhdQyg9TylbQ0gyXW4yW2NIXVtjSF1jKD1PKW4oW0NIM10pYzI9Tw==

> <s_epik_cmdline>
J2VwaWtfcHl0aG9uJywgJy1waCcsICc3LjAnLCAnLXRuJywgJzgnLCAnLW1hJywgJzIwMCcsICctbWV0YWxfYmluZGluZycsICctaW1hZScsICc8aW5maWxlLm1hZT4nLCAnLW9tYWUnLCAnPG91dGZpbGUubWFlPic=

> <r_lp_tautomer_probability>
1

> <r_epik_Ionization_Penalty>
0.00225783

> <r_epik_Ionization_Penalty_Charging>
0.00225776

> <r_epik_Ionization_Penalty_Neutral>
7.38919e-08

> <r_epik_State_Penalty>
0.00155497

> <r_epik_Charging_Adjusted_Penalty>
0.00381272

> <i_epik_Tot_Q>
1

> <i_epik_Tot_abs_Q>
1

> <r_epik_Metal_State_Penalty>
-0

> <b_epik_Metal_Only>
0

> <s_lp_Force_Field>
OPLS_2005

> <r_lp_Energy>
50.4542

> <b_lp_Chiralities_Consistent>
1

> <s_lp_Variant>
AV-unprocessed.smi:1597-1

> <Gold.Version>
5.8.1

> <Gold.Id.Protein>
6NUR|6NUR_protein|mol2

> <Gold.PLP.Fitness>
46.6986

> <Gold.PLP.PLP>
-32.8605

> <Gold.PLP.part.hbond>
-2.9921

> <Gold.PLP.part.metal>
0.0000

> <Gold.PLP.part.buried>
2.2421

> <Gold.PLP.part.nonpolar>
-33.0551

> <Gold.PLP.part.repulsive>
0.2291

> <Gold.PLP.ligand.clash>
0.0000

> <Gold.PLP.ligand.torsion>
0.7970

> <Gold.PLP.Chemscore.Hbond>
4.0000

> <Gold.PLP.Chemscore.CHOScore>
1.1020

> <Gold.PLP.Chemscore.Metal>
0.0000

> <Gold.Chemscore.Hbonds>
donor molecule, donor type, donor heavy atom, donor atom, acceptor molecule, acceptor atom, score
      L1  H     2    53       P1  7948  2.00
      L1  H     6    33       P1  7948  1.00
      P1  H  7997  8008       L1    14  0.83
      L1  C    11    36       P1  7948  0.17
      L1  C    11    36       P1  7949  0.93

> <Gold.PLP.Chemscore.Internal.Correction>
0.1262

> <Gold.Rescore>
     Score         DG    S(hbond)    S(metal)    S(lipo)     H(rot)  DE(clash)    DE(int)     intcor
     15.53     -18.06       2.98        0.00      66.74       2.02       1.62       0.90       ----

> <Gold.Chemscore.Fitness>
15.5309

> <Gold.Chemscore.DG>
-18.0557

> <Gold.Chemscore.ZeroCoef>
-5.4800

> <Gold.Chemscore.Hbond>
2.9784

> <Gold.Chemscore.Metal>
0.0000

> <Gold.Chemscore.Lipo>
66.7377

> <Gold.Chemscore.Internal_Hbond>
0.0000

> <Gold.Chemscore.DEClash>
1.6205

> <Gold.Chemscore.DEInternal>
0.9043

> <Gold.Chemscore.Rot>
2.0236

> <Gold.Chemscore.Internal.Correction>
   9.000000E+99

> <Gold.Chemscore.Hbonds>
donor molecule, donor type, donor heavy atom, donor atom, acceptor molecule, acceptor atom, score
      L1  H     2    53       P1  7948  0.98
      L1  H     6    33       P1  7948  0.93
      P1  H  7997  8008       L1    14  0.82

> <Gold.Chemscore.Hbond.Weighted>
-9.9477

> <Gold.Chemscore.Metal.Weighted>
-0.0000

> <Gold.Chemscore.Lipo.Weighted>
-7.8083

> <Gold.Chemscore.Internal_Hbond.Weighted>
0.0000

> <Gold.Chemscore.DEClash.Weighted>
1.6205

> <Gold.Chemscore.DEInternal.Weighted>
0.9043

> <Gold.Chemscore.Rot.Weighted>
5.1803

> <Gold.Chemscore.Internal.Correction.Weighted>
   9.000000E+99

> <Gold.Protein.RotatedTorsions>
[ 6907 6896 6895 6894 ] final -170.99 input  -60.11 | X-H torsion
[ 7974 7965 7964 7962 ] final -155.74 input  175.53 | X-H torsion
[ 8008 7997 7996 7995 ] final  -53.10 input   59.86 | X-H torsion
[ 10167 10162 10161 10158 ] final  112.03 input  -65.29 | X-H torsion
[ 10718 10713 10712 10709 ] final   40.56 input   66.30 | X-H torsion
[ 10763 10752 10751 10750 ] final   78.17 input  -60.55 | X-H torsion
[ 11005 11000 10999 10996 ] final  -25.38 input  -57.11 | X-H torsion

> <Gold.Protein.ActiveResidues>
 VAL166  LYS551  ARG553  GLY616  TRP617  ASP618  TYR619  PRO620  LYS621  CYS622 
 ASP623  PHE694  ASN695  SER759  ASP760  ASP761  ALA762  ILE779  LEU786  VAL792 
 PHE793  MET794  SER795  GLU796  ALA797  LYS798  CYS799  TRP800  GLU811  SER814 

> <Gold.Protein.RotatedAtoms>
  151.5165  133.3474  159.2893 H   0  0  0  0  0  0  0  0  0  0  0  0  # atno 6907 bound_to 6896
  150.8679  134.8049  159.7143 H   0  0  0  0  0  0  0  0  0  0  0  0  # atno 6908 bound_to 6896
  152.4677  134.5045  159.9786 H   0  0  0  0  0  0  0  0  0  0  0  0  # atno 6909 bound_to 6896
  144.7626  140.4207  143.5965 H   0  0  0  0  0  0  0  0  0  0  0  0  # atno 7974 bound_to 7965
  154.4124  140.1208  156.5099 H   0  0  0  0  0  0  0  0  0  0  0  0  # atno 8008 bound_to 7997
  155.6810  140.3496  155.4836 H   0  0  0  0  0  0  0  0  0  0  0  0  # atno 8009 bound_to 7997
  155.9552  140.1112  157.0933 H   0  0  0  0  0  0  0  0  0  0  0  0  # atno 8010 bound_to 7997
  139.6566  144.7129  151.1945 H   0  0  0  0  0  0  0  0  0  0  0  0  # atno 10167 bound_to 10162
  157.3836  130.7767  149.7212 H   0  0  0  0  0  0  0  0  0  0  0  0  # atno 10718 bound_to 10713
  153.0854  135.4887  154.8586 H   0  0  0  0  0  0  0  0  0  0  0  0  # atno 10763 bound_to 10752
  154.7203  135.3038  154.9059 H   0  0  0  0  0  0  0  0  0  0  0  0  # atno 10764 bound_to 10752
  153.9726  135.6799  153.4800 H   0  0  0  0  0  0  0  0  0  0  0  0  # atno 10765 bound_to 10752
  140.8932  133.7574  156.0448 H   0  0  0  0  0  0  0  0  0  0  0  0  # atno 11005 bound_to 11000
  145.6572  139.1575  143.2829 LP  0  0  0  0  0  0  0  0  0  0  0  0  # atno 17320 bound_to 7965
  146.1703  140.6655  142.9236 LP  0  0  0  0  0  0  0  0  0  0  0  0  # atno 17321 bound_to 7965
  140.7562  143.6062  150.8650 LP  0  0  0  0  0  0  0  0  0  0  0  0  # atno 17342 bound_to 10162
  139.9715  143.6051  152.2972 LP  0  0  0  0  0  0  0  0  0  0  0  0  # atno 17343 bound_to 10162
  155.9781  130.4055  150.3667 LP  0  0  0  0  0  0  0  0  0  0  0  0  # atno 17370 bound_to 10713
  157.1775  131.0384  151.2765 LP  0  0  0  0  0  0  0  0  0  0  0  0  # atno 17371 bound_to 10713
  140.8321  134.3166  157.5345 LP  0  0  0  0  0  0  0  0  0  0  0  0  # atno 17394 bound_to 11000
  139.8732  134.9369  156.3673 LP  0  0  0  0  0  0  0  0  0  0  0  0  # atno 17395 bound_to 11000

$$$$
