#       Name:                AV-unprocessed.smi:1659
#       Creating user name   scv26
#       Creation time:       Fri Mar 27 07:35:47 2020


#       File generated by GOLD software.
#

@<TRIPOS>MOLECULE
AV-unprocessed.smi:1659
    50    51     1
SMALL
NO_CHARGES


@<TRIPOS>ATOM
      1 ****        -5.8581   5.2713  -3.1296 C.3            1 S1                 0.0000
      2 ****        -4.8986   4.4311  -2.3587 C.2            1 S1                 0.0000
      3 ****        -4.2083   3.2928  -2.6651 C.2            1 S1                 0.0000
      4 ****        -3.4689   3.0319  -1.4789 C.2            1 S1                 0.0000
      5 ****        -2.6369   1.9983  -1.2784 N.pl3          1 S1                -1.0000
      6 ****        -1.3501   2.0689  -1.6909 C.2            1 S1                 0.0000
      7 ****        -0.8196   3.0183  -2.2727 O.2            1 S1                 0.0000
      8 ****        -0.6317   0.9724  -1.4135 N.am           1 S1                 0.0000
      9 ****         0.7768   0.7861  -1.7417 C.3            1 S1                 0.0000
     10 ****         1.3218  -0.5262  -1.1579 C.3            1 S1                 0.0000
     11 ****         1.2983  -0.5686   0.3820 C.3            1 S1                 0.0000
     12 ****         1.8981  -1.8056   0.8967 N.am           1 S1                 0.0000
     13 ****         3.2992  -1.7079   1.3352 C.3            1 S1                 0.0000
     14 ****         3.4790  -1.8014   2.8679 C.3            1 S1                 0.0000
     15 ****         2.4506  -2.6681   3.6216 C.3            1 S1                 0.0000
     16 ****         2.2564  -4.0918   3.0586 C.3            1 S1                 0.0000
     17 ****         1.8974  -4.2008   1.5567 C.3            1 S1                 0.0000
     18 ****         1.1952  -2.9622   0.9757 C.2            1 S1                 0.0000
     19 ****         0.0260  -3.0646   0.6041 O.2            1 S1                 0.0000
     20 ****        -3.7046   3.9229  -0.5302 N.2            1 S1                 0.0000
     21 ****        -4.6150   4.8278  -1.0890 O.3            1 S1                 0.0000
     22 ****        -6.5974   4.6489  -3.6335 H              1 S1                 0.0000
     23 ****        -5.3350   5.8558  -3.8863 H              1 S1                 0.0000
     24 ****        -6.3895   5.9626  -2.4752 H              1 S1                 0.0000
     25 ****        -4.2234   2.7373  -3.5908 H              1 S1                 0.0000
     26 ****        -1.0985   0.2144  -0.9372 H              1 S1                 0.0000
     27 ****         0.8883   0.7801  -2.8268 H              1 S1                 0.0000
     28 ****         1.3580   1.6296  -1.3656 H              1 S1                 0.0000
     29 ****         0.7539  -1.3644  -1.5636 H              1 S1                 0.0000
     30 ****         2.3478  -0.6606  -1.5024 H              1 S1                 0.0000
     31 ****         1.8228   0.2995   0.7834 H              1 S1                 0.0000
     32 ****         0.2744  -0.4753   0.7484 H              1 S1                 0.0000
     33 ****         3.8813  -2.4903   0.8484 H              1 S1                 0.0000
     34 ****         3.7550  -0.7839   0.9768 H              1 S1                 0.0000
     35 ****         4.4866  -2.1591   3.0825 H              1 S1                 0.0000
     36 ****         3.4307  -0.7943   3.2838 H              1 S1                 0.0000
     37 ****         2.7530  -2.7413   4.6668 H              1 S1                 0.0000
     38 ****         1.4895  -2.1521   3.6427 H              1 S1                 0.0000
     39 ****         3.1627  -4.6702   3.2408 H              1 S1                 0.0000
     40 ****         1.4760  -4.5832   3.6407 H              1 S1                 0.0000
     41 ****         2.7940  -4.4041   0.9712 H              1 S1                 0.0000
     42 ****         1.2629  -5.0748   1.4039 H              1 S1                 0.0000
     43 ****        -2.9692   1.1727  -0.8224 LP             1 S1                 0.0000
     44 ****        -1.3530   3.8380  -2.4815 LP             1 S1                 0.0000
     45 ****         0.1439   2.9684  -2.5356 LP             1 S1                 0.0000
     46 ****        -0.4487  -2.2714   0.2227 LP             1 S1                 0.0000
     47 ****        -0.4490  -3.9410   0.6837 LP             1 S1                 0.0000
     48 ****        -3.3152   3.9454   0.3906 LP             1 S1                 0.0000
     49 ****        -5.4539   4.8407  -0.5449 LP             1 S1                 0.0000
     50 ****        -4.2134   5.7435  -1.1041 LP             1 S1                 0.0000
@<TRIPOS>BOND
    1    1    2 1     
    2    1   22 1     
    3    1   23 1     
    4    1   24 1     
    5    2   21 1     
    6    2    3 2     
    7    3    4 1     
    8    3   25 1     
    9    4    5 1     
   10    4   20 2     
   11    5    6 1     
   12    6    7 2     
   13    6    8 am    
   14    8    9 1     
   15    8   26 1     
   16    9   10 1     
   17    9   27 1     
   18    9   28 1     
   19   10   11 1     
   20   10   29 1     
   21   10   30 1     
   22   11   12 1     
   23   11   31 1     
   24   11   32 1     
   25   12   18 am    
   26   12   13 1     
   27   13   14 1     
   28   13   33 1     
   29   13   34 1     
   30   14   15 1     
   31   14   35 1     
   32   14   36 1     
   33   15   16 1     
   34   15   37 1     
   35   15   38 1     
   36   16   17 1     
   37   16   39 1     
   38   16   40 1     
   39   17   18 1     
   40   17   41 1     
   41   17   42 1     
   42   18   19 2     
   43   20   21 1     
   44    5   43 1     
   45    7   44 1     
   46    7   45 1     
   47   19   46 1     
   48   19   47 1     
   49   20   48 1     
   50   21   49 1     
   51   21   50 1     
@<TRIPOS>SUBSTRUCTURE
      1 S1             1
@<TRIPOS>SET
LONE_PAIRS      STATIC     ATOMS    <user>   **** ""
8 43 44 45 46 47 48 49 50
DONOR_HYDROGENS      STATIC     ATOMS    <user>   **** ""
1 26
ATOM$BLUE        STATIC     ATOMS    COLORGROUP SYSTEM
8 43 44 45 46 47 48 49 50
ATOM$RED        STATIC     ATOMS    COLORGROUP SYSTEM
1 26
