AV-unprocessed.smi:1607|AV-procd|sdf|6466|dock6
  -GOLD-   22720 7123D 1   1.00000     0.00000
 Structure written by MMmdl.
 39 40  0  0  0  0  0  0  0  0  2 V2000
  153.7258  141.0444  160.1824 C   0  0  0  0  0  0  0  0  0  0  0  0
  152.6763  142.0618  159.7127 C   0  0  1  0  0  0  0  0  0  0  0  0
  153.2855  143.4653  159.5583 C   0  0  0  0  0  0  0  0  0  0  0  0
  152.2224  144.4538  159.0641 C   0  0  0  0  0  0  0  0  0  0  0  0
  151.5693  143.9552  157.7657 C   0  0  0  0  0  0  0  0  0  0  0  0
  150.9861  142.6001  157.9438 N   0  3  1  0  0  0  0  0  0  0  0  0
  150.2335  142.1534  156.7440 C   0  0  0  0  0  0  0  0  0  0  0  0
  149.3844  140.9004  157.0151 C   0  0  0  0  0  0  0  0  0  0  0  0
  149.9423  139.7468  156.3232 N   0  0  0  0  0  0  0  0  0  0  0  0
  150.2182  139.7122  155.0102 C   0  0  0  0  0  0  0  0  0  0  0  0
  149.9998  140.6564  154.2521 O   0  0  0  0  0  0  0  0  0  0  0  0
  150.8241  138.4174  154.4617 C   0  0  0  0  0  0  0  0  0  0  0  0
  152.2495  138.3346  154.7262 N   0  0  0  0  0  0  0  0  0  0  0  0
  153.2751  139.0267  154.2262 C   0  0  0  0  0  0  0  0  0  0  0  0
  154.4304  138.6250  154.7335 N   0  0  0  0  0  0  0  0  0  0  0  0
  154.0569  137.6187  155.6084 N   0  0  0  0  0  0  0  0  0  0  0  0
  152.7639  137.4433  155.6103 N   0  0  0  0  0  0  0  0  0  0  0  0
  152.0113  141.6195  158.3934 C   0  0  0  0  0  0  0  0  0  0  0  0
  154.5328  140.9416  159.4561 H   0  0  0  0  0  0  0  0  0  0  0  0
  153.2814  140.0594  160.3279 H   0  0  0  0  0  0  0  0  0  0  0  0
  154.1695  141.3477  161.1313 H   0  0  0  0  0  0  0  0  0  0  0  0
  151.9021  142.1119  160.4800 H   0  0  0  0  0  0  0  0  0  0  0  0
  153.6961  143.8072  160.5091 H   0  0  0  0  0  0  0  0  0  0  0  0
  154.1162  143.4359  158.8516 H   0  0  0  0  0  0  0  0  0  0  0  0
  151.4588  144.5867  159.8318 H   0  0  0  0  0  0  0  0  0  0  0  0
  152.6723  145.4339  158.9024 H   0  0  0  0  0  0  0  0  0  0  0  0
  150.7896  144.6579  157.4686 H   0  0  0  0  0  0  0  0  0  0  0  0
  152.3027  143.9342  156.9579 H   0  0  0  0  0  0  0  0  0  0  0  0
  149.5599  142.9514  156.4269 H   0  0  0  0  0  0  0  0  0  0  0  0
  150.9235  141.9858  155.9154 H   0  0  0  0  0  0  0  0  0  0  0  0
  149.3432  140.6710  158.0797 H   0  0  0  0  0  0  0  0  0  0  0  0
  148.3594  141.0707  156.6809 H   0  0  0  0  0  0  0  0  0  0  0  0
  150.1441  138.9269  156.8774 H   0  0  0  0  0  0  0  0  0  0  0  0
  150.3278  137.5595  154.9172 H   0  0  0  0  0  0  0  0  0  0  0  0
  150.6611  138.3509  153.3849 H   0  0  0  0  0  0  0  0  0  0  0  0
  153.1772  139.8138  153.4933 H   0  0  0  0  0  0  0  0  0  0  0  0
  152.7646  141.4987  157.6129 H   0  0  0  0  0  0  0  0  0  0  0  0
  151.5546  140.6416  158.5413 H   0  0  0  0  0  0  0  0  0  0  0  0
  150.3104  142.6829  158.6900 H   0  0  0  0  0  0  0  0  0  0  0  0
  1  2  1  0  0  0  0
  1 19  1  0  0  0  0
  1 20  1  0  0  0  0
  1 21  1  0  0  0  0
  2 18  1  0  0  0  0
  2  3  1  0  0  0  0
  2 22  1  0  0  0  0
  3  4  1  0  0  0  0
  3 23  1  0  0  0  0
  3 24  1  0  0  0  0
  4  5  1  0  0  0  0
  4 25  1  0  0  0  0
  4 26  1  0  0  0  0
  5  6  1  0  0  0  0
  5 27  1  0  0  0  0
  5 28  1  0  0  0  0
  6  7  1  0  0  0  0
  6 18  1  0  0  0  0
  6 39  1  0  0  0  0
  7  8  1  0  0  0  0
  7 29  1  0  0  0  0
  7 30  1  0  0  0  0
  8  9  1  0  0  0  0
  8 31  1  0  0  0  0
  8 32  1  0  0  0  0
  9 10  1  0  0  0  0
  9 33  1  0  0  0  0
 10 11  2  0  0  0  0
 10 12  1  0  0  0  0
 12 13  1  0  0  0  0
 12 34  1  0  0  0  0
 12 35  1  0  0  0  0
 13 17  1  0  0  0  0
 13 14  1  0  0  0  0
 14 15  2  0  0  0  0
 14 36  1  0  0  0  0
 15 16  1  0  0  0  0
 16 17  2  0  0  0  0
 18 37  1  0  0  0  0
 18 38  1  0  0  0  0
M  CHG  1   6   1
M  END
> <s_m_source_file>
AV-unprocessed.smi

> <i_m_source_file_index>
1607

> <i_lp_mmshare_version>
43012

> <i_f3d_flags>
0

> <s_epik_input>
W0NIM11bQ0BASF0xW0NIMl1bQ0gyXVtDSDJdTihbQ0gyXTEpW0NIMl1bQ0gyXVtOSF1DKD1PKVtDSDJdbjJbY0hdbm5uMg==

> <s_epik_cmdline>
J2VwaWtfcHl0aG9uJywgJy1waCcsICc3LjAnLCAnLXRuJywgJzgnLCAnLW1hJywgJzIwMCcsICctbWV0YWxfYmluZGluZycsICctaW1hZScsICc8aW5maWxlLm1hZT4nLCAnLW9tYWUnLCAnPG91dGZpbGUubWFlPic=

> <r_lp_tautomer_probability>
1

> <r_epik_Ionization_Penalty>
0.00268321

> <r_epik_Ionization_Penalty_Charging>
0.00267875

> <r_epik_Ionization_Penalty_Neutral>
4.46125e-06

> <r_epik_State_Penalty>
0.00186642

> <r_epik_Charging_Adjusted_Penalty>
0.00454517

> <i_epik_Tot_Q>
1

> <i_epik_Tot_abs_Q>
1

> <r_epik_Metal_State_Penalty>
-0

> <b_epik_Metal_Only>
0

> <s_lp_Force_Field>
OPLS_2005

> <r_lp_Energy>
19.4205

> <b_lp_Chiralities_Consistent>
1

> <s_lp_Variant>
AV-unprocessed.smi:1607-4

> <Gold.Version>
5.8.1

> <Gold.Id.Protein>
6NUR|6NUR_protein|mol2

> <Gold.PLP.Fitness>
42.7089

> <Gold.PLP.PLP>
-40.8745

> <Gold.PLP.part.hbond>
-4.6448

> <Gold.PLP.part.metal>
0.0000

> <Gold.PLP.part.buried>
-5.5429

> <Gold.PLP.part.nonpolar>
-31.2668

> <Gold.PLP.part.repulsive>
0.1963

> <Gold.PLP.ligand.clash>
0.0000

> <Gold.PLP.ligand.torsion>
0.7795

> <Gold.PLP.Chemscore.Hbond>
1.1150

> <Gold.PLP.Chemscore.CHOScore>
0.0000

> <Gold.PLP.Chemscore.Metal>
0.0000

> <Gold.Chemscore.Hbonds>
donor molecule, donor type, donor heavy atom, donor atom, acceptor molecule, acceptor atom, score
      P1  H  7989  7998       L1    11  0.74
      P1  H  7997  8010       L1    15  0.49
      P1  H 10752 10764       L1    17  0.01

> <Gold.PLP.Chemscore.Internal.Correction>
0.0484

> <Gold.Rescore>
     Score         DG    S(hbond)    S(metal)    S(lipo)     H(rot)  DE(clash)    DE(int)     intcor
      9.52     -11.90       0.98        0.00      85.83       2.69       0.07       2.32       ----

> <Gold.Chemscore.Fitness>
9.5178

> <Gold.Chemscore.DG>
-11.9050

> <Gold.Chemscore.ZeroCoef>
-5.4800

> <Gold.Chemscore.Hbond>
0.9812

> <Gold.Chemscore.Metal>
0.0000

> <Gold.Chemscore.Lipo>
85.8317

> <Gold.Chemscore.Internal_Hbond>
0.0000

> <Gold.Chemscore.DEClash>
0.0715

> <Gold.Chemscore.DEInternal>
2.3157

> <Gold.Chemscore.Rot>
2.6932

> <Gold.Chemscore.Internal.Correction>
   9.000000E+99

> <Gold.Chemscore.Hbonds>
donor molecule, donor type, donor heavy atom, donor atom, acceptor molecule, acceptor atom, score
      P1  H  7989  7998       L1    11  0.25
      P1  H  7997  8010       L1    15  0.06

> <Gold.Chemscore.Hbond.Weighted>
-3.2772

> <Gold.Chemscore.Metal.Weighted>
-0.0000

> <Gold.Chemscore.Lipo.Weighted>
-10.0423

> <Gold.Chemscore.Internal_Hbond.Weighted>
0.0000

> <Gold.Chemscore.DEClash.Weighted>
0.0715

> <Gold.Chemscore.DEInternal.Weighted>
2.3157

> <Gold.Chemscore.Rot.Weighted>
6.8945

> <Gold.Chemscore.Internal.Correction.Weighted>
   9.000000E+99

> <Gold.Protein.RotatedTorsions>
[ 6907 6896 6895 6894 ] final  111.32 input  -60.11 | X-H torsion
[ 7974 7965 7964 7962 ] final    4.94 input  175.53 | X-H torsion
[ 8008 7997 7996 7995 ] final  135.12 input   59.86 | X-H torsion
[ 10167 10162 10161 10158 ] final  169.70 input  -65.29 | X-H torsion
[ 10718 10713 10712 10709 ] final  100.03 input   66.30 | X-H torsion
[ 10763 10752 10751 10750 ] final  -93.19 input  -60.55 | X-H torsion
[ 11005 11000 10999 10996 ] final  -97.39 input  -57.11 | X-H torsion

> <Gold.Protein.ActiveResidues>
 VAL166  LYS551  ARG553  GLY616  TRP617  ASP618  TYR619  PRO620  LYS621  CYS622 
 ASP623  PHE694  ASN695  SER759  ASP760  ASP761  ALA762  ILE779  LEU786  VAL792 
 PHE793  MET794  SER795  GLU796  ALA797  LYS798  CYS799  TRP800  GLU811  SER814 

> <Gold.Protein.RotatedAtoms>
  152.4975  133.8674  159.7280 H   0  0  0  0  0  0  0  0  0  0  0  0  # atno 6907 bound_to 6896
  150.9170  133.6918  159.2848 H   0  0  0  0  0  0  0  0  0  0  0  0  # atno 6908 bound_to 6896
  151.4308  135.1013  159.9694 H   0  0  0  0  0  0  0  0  0  0  0  0  # atno 6909 bound_to 6896
  146.2442  140.0459  142.8378 H   0  0  0  0  0  0  0  0  0  0  0  0  # atno 7974 bound_to 7965
  156.3002  140.2478  156.3530 H   0  0  0  0  0  0  0  0  0  0  0  0  # atno 8008 bound_to 7997
  154.8948  140.0408  157.1879 H   0  0  0  0  0  0  0  0  0  0  0  0  # atno 8009 bound_to 7997
  154.8561  140.2913  155.5572 H   0  0  0  0  0  0  0  0  0  0  0  0  # atno 8010 bound_to 7997
  139.4999  144.3678  151.9757 H   0  0  0  0  0  0  0  0  0  0  0  0  # atno 10167 bound_to 10162
  157.6863  131.0686  150.5038 H   0  0  0  0  0  0  0  0  0  0  0  0  # atno 10718 bound_to 10713
  154.6935  135.5203  153.8425 H   0  0  0  0  0  0  0  0  0  0  0  0  # atno 10763 bound_to 10752
  153.0649  135.6581  154.0386 H   0  0  0  0  0  0  0  0  0  0  0  0  # atno 10764 bound_to 10752
  154.0256  135.2990  155.3355 H   0  0  0  0  0  0  0  0  0  0  0  0  # atno 10765 bound_to 10752
  141.1380  133.8167  157.0699 H   0  0  0  0  0  0  0  0  0  0  0  0  # atno 11005 bound_to 11000
  145.1028  140.9356  143.4702 LP  0  0  0  0  0  0  0  0  0  0  0  0  # atno 17320 bound_to 7965
  145.0655  139.3072  143.5858 LP  0  0  0  0  0  0  0  0  0  0  0  0  # atno 17321 bound_to 7965
  140.3114  144.3534  150.6033 LP  0  0  0  0  0  0  0  0  0  0  0  0  # atno 17342 bound_to 10162
  140.5796  143.2174  151.7453 LP  0  0  0  0  0  0  0  0  0  0  0  0  # atno 17343 bound_to 10162
  156.5358  130.4196  149.6178 LP  0  0  0  0  0  0  0  0  0  0  0  0  # atno 17370 bound_to 10713
  156.3029  130.7186  151.2062 LP  0  0  0  0  0  0  0  0  0  0  0  0  # atno 17371 bound_to 10713
  140.0518  134.9801  157.1149 LP  0  0  0  0  0  0  0  0  0  0  0  0  # atno 17394 bound_to 11000
  140.3979  134.2114  155.7164 LP  0  0  0  0  0  0  0  0  0  0  0  0  # atno 17395 bound_to 11000

$$$$
