AV-unprocessed.smi:2121|AV-procd|sdf|8641|dock4
  -GOLD-   2272011393D 1   1.00000     0.00000
 Structure written by MMmdl.
 49 50  0  0  0  0  0  0  0  0  1 V2000
  153.7613  141.7175  161.7786 C   0  0  0  0  0  0  0  0  0  0  0  0
  152.7037  142.0480  160.7202 C   0  0  2  0  0  0  0  0  0  0  0  0
  152.8619  141.1832  159.4553 C   0  0  0  0  0  0  0  0  0  0  0  0
  151.9148  141.6051  158.4268 N   0  0  0  0  0  0  0  0  0  0  0  0
  151.7671  140.7219  157.3354 C   0  0  0  0  0  0  0  0  0  0  0  0
  150.5877  140.7481  156.5540 C   0  0  0  0  0  0  0  0  0  0  0  0
  150.4584  139.8543  155.4742 C   0  0  0  0  0  0  0  0  0  0  0  0
  151.5086  138.9529  155.2014 C   0  0  0  0  0  0  0  0  0  0  0  0
  151.4420  137.9574  154.0516 C   0  0  0  0  0  0  0  0  0  0  0  0
  150.5064  136.8577  154.2632 N   0  0  0  0  0  0  0  0  0  0  0  0
  150.5479  136.0027  155.2964 C   0  0  0  0  0  0  0  0  0  0  0  0
  151.3972  136.0624  156.1874 O   0  0  0  0  0  0  0  0  0  0  0  0
  149.4419  134.9363  155.3368 C   0  0  2  0  0  0  0  0  0  0  0  0
  150.1131  133.5539  155.2766 C   0  0  0  0  0  0  0  0  0  0  0  0
  148.5573  135.0629  154.1795 N   0  0  0  0  0  0  0  0  0  0  0  0
  147.3018  134.5960  154.1160 C   0  0  0  0  0  0  0  0  0  0  0  0
  146.7170  134.8699  152.9497 N   0  0  0  0  0  0  0  0  0  0  0  0
  146.7386  133.9843  155.0216 O   0  0  0  0  0  0  0  0  0  0  0  0
  152.6509  139.0084  156.0243 C   0  0  0  0  0  0  0  0  0  0  0  0
  152.7810  139.8646  157.0593 N   0  0  0  0  0  0  0  0  0  0  0  0
  151.9703  143.0381  158.1460 C   0  0  0  0  0  0  0  0  0  0  0  0
  151.8350  143.8479  159.4487 C   0  0  2  0  0  0  0  0  0  0  0  0
  152.0064  145.3518  159.2117 C   0  0  0  0  0  0  0  0  0  0  0  0
  152.8363  143.4228  160.3691 O   0  0  0  0  0  0  0  0  0  0  0  0
  153.6929  140.6747  162.0891 H   0  0  0  0  0  0  0  0  0  0  0  0
  153.6313  142.3374  162.6659 H   0  0  0  0  0  0  0  0  0  0  0  0
  154.7683  141.8884  161.3973 H   0  0  0  0  0  0  0  0  0  0  0  0
  151.7160  141.8840  161.1553 H   0  0  0  0  0  0  0  0  0  0  0  0
  153.8735  141.2792  159.0583 H   0  0  0  0  0  0  0  0  0  0  0  0
  152.7257  140.1362  159.7222 H   0  0  0  0  0  0  0  0  0  0  0  0
  149.7919  141.4482  156.7599 H   0  0  0  0  0  0  0  0  0  0  0  0
  149.5645  139.8690  154.8681 H   0  0  0  0  0  0  0  0  0  0  0  0
  151.1382  138.4940  153.1528 H   0  0  0  0  0  0  0  0  0  0  0  0
  152.4370  137.5564  153.8505 H   0  0  0  0  0  0  0  0  0  0  0  0
  149.7756  136.7388  153.5765 H   0  0  0  0  0  0  0  0  0  0  0  0
  148.8643  135.0242  156.2591 H   0  0  0  0  0  0  0  0  0  0  0  0
  150.7841  133.4023  156.1231 H   0  0  0  0  0  0  0  0  0  0  0  0
  150.6957  133.4236  154.3631 H   0  0  0  0  0  0  0  0  0  0  0  0
  149.3682  132.7582  155.3078 H   0  0  0  0  0  0  0  0  0  0  0  0
  148.9237  135.5593  153.3807 H   0  0  0  0  0  0  0  0  0  0  0  0
  145.7693  134.5710  152.7730 H   0  0  0  0  0  0  0  0  0  0  0  0
  147.2303  135.3773  152.2435 H   0  0  0  0  0  0  0  0  0  0  0  0
  153.4861  138.3462  155.8505 H   0  0  0  0  0  0  0  0  0  0  0  0
  152.9157  143.2710  157.6538 H   0  0  0  0  0  0  0  0  0  0  0  0
  151.1678  143.3175  157.4620 H   0  0  0  0  0  0  0  0  0  0  0  0
  150.8500  143.6767  159.8870 H   0  0  0  0  0  0  0  0  0  0  0  0
  151.2518  145.7284  158.5206 H   0  0  0  0  0  0  0  0  0  0  0  0
  152.9873  145.5760  158.7919 H   0  0  0  0  0  0  0  0  0  0  0  0
  151.9087  145.9068  160.1450 H   0  0  0  0  0  0  0  0  0  0  0  0
  1  2  1  0  0  0  0
  1 25  1  0  0  0  0
  1 26  1  0  0  0  0
  1 27  1  0  0  0  0
  2 24  1  0  0  0  0
  2  3  1  0  0  0  0
  2 28  1  0  0  0  0
  3  4  1  0  0  0  0
  3 29  1  0  0  0  0
  3 30  1  0  0  0  0
  4  5  1  0  0  0  0
  4 21  1  0  0  0  0
  5 20  1  0  0  0  0
  5  6  2  0  0  0  0
  6  7  1  0  0  0  0
  6 31  1  0  0  0  0
  7  8  2  0  0  0  0
  7 32  1  0  0  0  0
  8  9  1  0  0  0  0
  8 19  1  0  0  0  0
  9 10  1  0  0  0  0
  9 33  1  0  0  0  0
  9 34  1  0  0  0  0
 10 11  1  0  0  0  0
 10 35  1  0  0  0  0
 11 12  2  0  0  0  0
 11 13  1  0  0  0  0
 13 14  1  0  0  0  0
 13 15  1  0  0  0  0
 13 36  1  0  0  0  0
 14 37  1  0  0  0  0
 14 38  1  0  0  0  0
 14 39  1  0  0  0  0
 15 16  1  0  0  0  0
 15 40  1  0  0  0  0
 16 17  1  0  0  0  0
 16 18  2  0  0  0  0
 17 41  1  0  0  0  0
 17 42  1  0  0  0  0
 19 20  2  0  0  0  0
 19 43  1  0  0  0  0
 21 22  1  0  0  0  0
 21 44  1  0  0  0  0
 21 45  1  0  0  0  0
 22 23  1  0  0  0  0
 22 24  1  0  0  0  0
 22 46  1  0  0  0  0
 23 47  1  0  0  0  0
 23 48  1  0  0  0  0
 23 49  1  0  0  0  0
M  END
> <s_m_source_file>
AV-unprocessed.smi

> <i_m_source_file_index>
2121

> <i_lp_mmshare_version>
43012

> <i_f3d_flags>
0

> <s_epik_input>
W0NIM11bQ0BASF0xW0NIMl1OKFtDSDJdW0NASF0oTzEpW0NIM10pYzJbY0hdW2NIXWMoW2NIXW4yKVtDSDJdW05IXUMoPU8pW0NASF0oW0NIM10pW05IXUMoPU8pW05IMl0=

> <s_epik_cmdline>
J2VwaWtfcHl0aG9uJywgJy1waCcsICc3LjAnLCAnLXRuJywgJzgnLCAnLW1hJywgJzIwMCcsICctbWV0YWxfYmluZGluZycsICctaW1hZScsICc8aW5maWxlLm1hZT4nLCAnLW9tYWUnLCAnPG91dGZpbGUubWFlPic=

> <r_lp_tautomer_probability>
1

> <r_epik_Ionization_Penalty>
0.0063713

> <r_epik_Ionization_Penalty_Charging>
0

> <r_epik_Ionization_Penalty_Neutral>
0.0063713

> <r_epik_State_Penalty>
0.00467069

> <r_epik_Charging_Adjusted_Penalty>
0.00467069

> <i_epik_Tot_Q>
0

> <i_epik_Tot_abs_Q>
0

> <r_epik_Metal_State_Penalty>
-0

> <b_epik_Metal_Only>
0

> <s_lp_Force_Field>
OPLS_2005

> <r_lp_Energy>
8.04486

> <b_lp_Chiralities_Consistent>
1

> <s_lp_Variant>
AV-unprocessed.smi:2121-2

> <Gold.Version>
5.8.1

> <Gold.Id.Protein>
6NUR|6NUR_protein|mol2

> <Gold.PLP.Fitness>
55.4690

> <Gold.PLP.PLP>
-45.7055

> <Gold.PLP.part.hbond>
-5.7765

> <Gold.PLP.part.metal>
0.0000

> <Gold.PLP.part.buried>
-3.3337

> <Gold.PLP.part.nonpolar>
-36.7973

> <Gold.PLP.part.repulsive>
0.1388

> <Gold.PLP.ligand.clash>
0.0000

> <Gold.PLP.ligand.torsion>
0.7974

> <Gold.PLP.Chemscore.Hbond>
3.6672

> <Gold.PLP.Chemscore.CHOScore>
0.0000

> <Gold.PLP.Chemscore.Metal>
0.0000

> <Gold.Chemscore.Hbonds>
donor molecule, donor type, donor heavy atom, donor atom, acceptor molecule, acceptor atom, score
      L1  H    10    35       P1  7948  1.00
      L1  H    15    40       P1  7948  1.00
      L1  H    17    42       P1  7948  0.88
      P1  H  7997  8008       L1    20  0.74

> <Gold.PLP.Chemscore.Internal.Correction>
0.3567

> <Gold.Rescore>
     Score         DG    S(hbond)    S(metal)    S(lipo)     H(rot)  DE(clash)    DE(int)     intcor
     19.27     -21.33       2.85        0.00     110.74       2.58       0.38       1.68       ----

> <Gold.Chemscore.Fitness>
19.2671

> <Gold.Chemscore.DG>
-21.3255

> <Gold.Chemscore.ZeroCoef>
-5.4800

> <Gold.Chemscore.Hbond>
2.8454

> <Gold.Chemscore.Metal>
0.0000

> <Gold.Chemscore.Lipo>
110.7384

> <Gold.Chemscore.Internal_Hbond>
0.0000

> <Gold.Chemscore.DEClash>
0.3761

> <Gold.Chemscore.DEInternal>
1.6823

> <Gold.Chemscore.Rot>
2.5838

> <Gold.Chemscore.Internal.Correction>
   9.000000E+99

> <Gold.Chemscore.Hbonds>
donor molecule, donor type, donor heavy atom, donor atom, acceptor molecule, acceptor atom, score
      L1  H    10    35       P1  7948  0.49
      L1  H    15    40       P1  7948  0.81
      L1  H    17    42       P1  7948  0.86
      P1  H  7997  8008       L1    20  0.11

> <Gold.Chemscore.Hbond.Weighted>
-9.5035

> <Gold.Chemscore.Metal.Weighted>
-0.0000

> <Gold.Chemscore.Lipo.Weighted>
-12.9564

> <Gold.Chemscore.Internal_Hbond.Weighted>
0.0000

> <Gold.Chemscore.DEClash.Weighted>
0.3761

> <Gold.Chemscore.DEInternal.Weighted>
1.6823

> <Gold.Chemscore.Rot.Weighted>
6.6145

> <Gold.Chemscore.Internal.Correction.Weighted>
   9.000000E+99

> <Gold.Protein.RotatedTorsions>
[ 6907 6896 6895 6894 ] final  -33.85 input  -60.11 | X-H torsion
[ 7974 7965 7964 7962 ] final  134.96 input  175.53 | X-H torsion
[ 8008 7997 7996 7995 ] final  -79.26 input   59.86 | X-H torsion
[ 10167 10162 10161 10158 ] final   99.30 input  -65.29 | X-H torsion
[ 10718 10713 10712 10709 ] final   -6.90 input   66.30 | X-H torsion
[ 10763 10752 10751 10750 ] final   33.28 input  -60.55 | X-H torsion
[ 11005 11000 10999 10996 ] final  -42.19 input  -57.11 | X-H torsion

> <Gold.Protein.ActiveResidues>
 VAL166  LYS551  ARG553  GLY616  TRP617  ASP618  TYR619  PRO620  LYS621  CYS622 
 ASP623  PHE694  ASN695  SER759  ASP760  ASP761  ALA762  ILE779  LEU786  VAL792 
 PHE793  MET794  SER795  GLU796  ALA797  LYS798  CYS799  TRP800  GLU811  SER814 

> <Gold.Protein.RotatedAtoms>
  151.0602  134.9732  159.8256 H   0  0  0  0  0  0  0  0  0  0  0  0  # atno 6907 bound_to 6896
  152.5394  134.2427  159.8878 H   0  0  0  0  0  0  0  0  0  0  0  0  # atno 6908 bound_to 6896
  151.2446  133.4338  159.2642 H   0  0  0  0  0  0  0  0  0  0  0  0  # atno 6909 bound_to 6896
  144.9711  139.4604  143.5432 H   0  0  0  0  0  0  0  0  0  0  0  0  # atno 7974 bound_to 7965
  154.5768  140.0681  156.9046 H   0  0  0  0  0  0  0  0  0  0  0  0  # atno 8008 bound_to 7997
  155.2534  140.3353  155.4262 H   0  0  0  0  0  0  0  0  0  0  0  0  # atno 8009 bound_to 7997
  156.2160  140.1778  156.7573 H   0  0  0  0  0  0  0  0  0  0  0  0  # atno 8010 bound_to 7997
  139.7630  144.6948  151.0264 H   0  0  0  0  0  0  0  0  0  0  0  0  # atno 10167 bound_to 10162
  156.7252  130.5163  149.5858 H   0  0  0  0  0  0  0  0  0  0  0  0  # atno 10718 bound_to 10713
  153.0220  135.6391  154.1487 H   0  0  0  0  0  0  0  0  0  0  0  0  # atno 10763 bound_to 10752
  154.1220  135.2846  155.3207 H   0  0  0  0  0  0  0  0  0  0  0  0  # atno 10764 bound_to 10752
  154.6256  135.5510  153.7686 H   0  0  0  0  0  0  0  0  0  0  0  0  # atno 10765 bound_to 10752
  141.0298  133.6825  156.2560 H   0  0  0  0  0  0  0  0  0  0  0  0  # atno 11005 bound_to 11000
  146.3382  139.8924  142.8807 LP  0  0  0  0  0  0  0  0  0  0  0  0  # atno 17320 bound_to 7965
  145.2557  141.0059  143.3855 LP  0  0  0  0  0  0  0  0  0  0  0  0  # atno 17321 bound_to 7965
  140.7808  143.4675  151.0192 LP  0  0  0  0  0  0  0  0  0  0  0  0  # atno 17342 bound_to 10162
  139.8360  143.7627  152.3180 LP  0  0  0  0  0  0  0  0  0  0  0  0  # atno 17343 bound_to 10162
  156.1567  130.6346  151.0666 LP  0  0  0  0  0  0  0  0  0  0  0  0  # atno 17370 bound_to 10713
  157.6882  131.0818  150.7184 LP  0  0  0  0  0  0  0  0  0  0  0  0  # atno 17371 bound_to 10713
  140.6427  134.5149  157.5571 LP  0  0  0  0  0  0  0  0  0  0  0  0  # atno 17394 bound_to 11000
  139.9200  134.8168  156.1241 LP  0  0  0  0  0  0  0  0  0  0  0  0  # atno 17395 bound_to 11000

$$$$
