AV-unprocessed.smi:1668|AV-procd|sdf|6681|dock2
  -GOLD-   22720 7393D 1   1.00000     0.00000
 Structure written by MMmdl.
 44 46  0  0  0  0  0  0  0  0  1 V2000
  155.8443  133.8825  157.2789 C   0  0  0  0  0  0  0  0  0  0  0  0
  155.1044  135.0926  157.2093 O   0  0  0  0  0  0  0  0  0  0  0  0
  154.7862  135.7268  158.3908 C   0  0  0  0  0  0  0  0  0  0  0  0
  154.9074  135.1355  159.6701 C   0  0  0  0  0  0  0  0  0  0  0  0
  154.5681  135.8619  160.8260 C   0  0  0  0  0  0  0  0  0  0  0  0
  154.0991  137.1954  160.7350 C   0  0  0  0  0  0  0  0  0  0  0  0
  153.7737  137.9567  161.8388 O   0  0  0  0  0  0  0  0  0  0  0  0
  153.7784  137.3334  163.1143 C   0  0  0  0  0  0  0  0  0  0  0  0
  153.9686  137.7885  159.4548 C   0  0  0  0  0  0  0  0  0  0  0  0
  153.5077  139.2393  159.3071 C   0  0  2  0  0  0  0  0  0  0  0  0
  153.2303  139.5883  157.9656 O   0  0  0  0  0  0  0  0  0  0  0  0
  154.5364  140.2492  159.8637 C   0  0  0  0  0  0  0  0  0  0  0  0
  153.8993  141.3523  160.5842 N   0  0  0  0  0  0  0  0  0  0  0  0
  154.0398  141.6311  161.9020 C   0  0  0  0  0  0  0  0  0  0  0  0
  154.6908  140.9729  162.7133 O   0  0  0  0  0  0  0  0  0  0  0  0
  153.3719  142.7788  162.1619 N   0  0  0  0  0  0  0  0  0  0  0  0
  153.2955  143.4739  163.4409 C   0  0  0  0  0  0  0  0  0  0  0  0
  152.8009  143.2574  160.9760 C   0  0  0  0  0  0  0  0  0  0  0  0
  152.0450  144.4137  160.7175 C   0  0  0  0  0  0  0  0  0  0  0  0
  151.6234  144.6249  159.3838 C   0  0  0  0  0  0  0  0  0  0  0  0
  151.9579  143.7003  158.3607 C   0  0  0  0  0  0  0  0  0  0  0  0
  152.7190  142.5439  158.6497 C   0  0  0  0  0  0  0  0  0  0  0  0
  153.1257  142.3576  159.9828 C   0  0  0  0  0  0  0  0  0  0  0  0
  154.3154  137.0502  158.3013 C   0  0  0  0  0  0  0  0  0  0  0  0
  156.0166  133.5077  156.2701 H   0  0  0  0  0  0  0  0  0  0  0  0
  155.2995  133.1133  157.8278 H   0  0  0  0  0  0  0  0  0  0  0  0
  156.8191  134.0371  157.7437 H   0  0  0  0  0  0  0  0  0  0  0  0
  155.2627  134.1239  159.7936 H   0  0  0  0  0  0  0  0  0  0  0  0
  154.6795  135.3683  161.7791 H   0  0  0  0  0  0  0  0  0  0  0  0
  153.6116  138.0897  163.8812 H   0  0  0  0  0  0  0  0  0  0  0  0
  154.7398  136.8615  163.3231 H   0  0  0  0  0  0  0  0  0  0  0  0
  152.9824  136.5931  163.2012 H   0  0  0  0  0  0  0  0  0  0  0  0
  152.5648  139.3708  159.8382 H   0  0  0  0  0  0  0  0  0  0  0  0
  152.8302  138.8452  157.5403 H   0  0  0  0  0  0  0  0  0  0  0  0
  155.2436  139.7430  160.5213 H   0  0  0  0  0  0  0  0  0  0  0  0
  155.1326  140.6603  159.0472 H   0  0  0  0  0  0  0  0  0  0  0  0
  152.2836  143.8392  163.6188 H   0  0  0  0  0  0  0  0  0  0  0  0
  153.9740  144.3273  163.4435 H   0  0  0  0  0  0  0  0  0  0  0  0
  153.5650  142.8224  164.2733 H   0  0  0  0  0  0  0  0  0  0  0  0
  151.7985  145.1152  161.5004 H   0  0  0  0  0  0  0  0  0  0  0  0
  151.0417  145.5019  159.1411 H   0  0  0  0  0  0  0  0  0  0  0  0
  151.6294  143.8825  157.3480 H   0  0  0  0  0  0  0  0  0  0  0  0
  152.9815  141.8422  157.8721 H   0  0  0  0  0  0  0  0  0  0  0  0
  154.2349  137.5084  157.3263 H   0  0  0  0  0  0  0  0  0  0  0  0
  1  2  1  0  0  0  0
  1 25  1  0  0  0  0
  1 26  1  0  0  0  0
  1 27  1  0  0  0  0
  2  3  1  0  0  0  0
  3 24  1  0  0  0  0
  3  4  2  0  0  0  0
  4  5  1  0  0  0  0
  4 28  1  0  0  0  0
  5  6  2  0  0  0  0
  5 29  1  0  0  0  0
  6  7  1  0  0  0  0
  6  9  1  0  0  0  0
  7  8  1  0  0  0  0
  8 30  1  0  0  0  0
  8 31  1  0  0  0  0
  8 32  1  0  0  0  0
  9 10  1  0  0  0  0
  9 24  2  0  0  0  0
 10 11  1  0  0  0  0
 10 12  1  0  0  0  0
 10 33  1  0  0  0  0
 11 34  1  0  0  0  0
 12 13  1  0  0  0  0
 12 35  1  0  0  0  0
 12 36  1  0  0  0  0
 13 23  1  0  0  0  0
 13 14  1  0  0  0  0
 14 15  2  0  0  0  0
 14 16  1  0  0  0  0
 16 17  1  0  0  0  0
 16 18  1  0  0  0  0
 17 37  1  0  0  0  0
 17 38  1  0  0  0  0
 17 39  1  0  0  0  0
 18 23  2  0  0  0  0
 18 19  1  0  0  0  0
 19 20  2  0  0  0  0
 19 40  1  0  0  0  0
 20 21  1  0  0  0  0
 20 41  1  0  0  0  0
 21 22  2  0  0  0  0
 21 42  1  0  0  0  0
 22 23  1  0  0  0  0
 22 43  1  0  0  0  0
 24 44  1  0  0  0  0
M  END
> <s_m_source_file>
AV-unprocessed.smi

> <i_m_source_file_index>
1668

> <i_lp_mmshare_version>
43012

> <i_f3d_flags>
0

> <s_epik_input>
W0NIM11PYzFbY0hdW2NIXWMoT1tDSDNdKWMoW2NIXTEpW0NASF0oW09IXSlbQ0gyXW4oYyg9TyluMltDSDNdKWMoYzIzKVtjSF1bY0hdW2NIXVtjSF0z

> <s_epik_cmdline>
J2VwaWtfcHl0aG9uJywgJy1waCcsICc3LjAnLCAnLXRuJywgJzgnLCAnLW1hJywgJzIwMCcsICctbWV0YWxfYmluZGluZycsICctaW1hZScsICc8aW5maWxlLm1hZT4nLCAnLW9tYWUnLCAnPG91dGZpbGUubWFlPic=

> <r_lp_tautomer_probability>
1

> <r_epik_Ionization_Penalty>
1.34538e-06

> <r_epik_Ionization_Penalty_Charging>
1.76928e-09

> <r_epik_Ionization_Penalty_Neutral>
1.34362e-06

> <r_epik_State_Penalty>
-0

> <r_epik_Charging_Adjusted_Penalty>
1.76928e-09

> <i_epik_Tot_Q>
0

> <i_epik_Tot_abs_Q>
0

> <r_epik_Metal_State_Penalty>
-0

> <b_epik_Metal_Only>
0

> <s_lp_Force_Field>
OPLS_2005

> <r_lp_Energy>
46.5536

> <b_lp_Chiralities_Consistent>
1

> <s_lp_Variant>
AV-unprocessed.smi:1668-1

> <Gold.Version>
5.8.1

> <Gold.Id.Protein>
6NUR|6NUR_protein|mol2

> <Gold.PLP.Fitness>
55.3988

> <Gold.PLP.PLP>
-51.1283

> <Gold.PLP.part.hbond>
-3.0000

> <Gold.PLP.part.metal>
0.0000

> <Gold.PLP.part.buried>
-5.2807

> <Gold.PLP.part.nonpolar>
-42.6165

> <Gold.PLP.part.repulsive>
0.0000

> <Gold.PLP.ligand.clash>
0.0000

> <Gold.PLP.ligand.torsion>
0.9328

> <Gold.PLP.Chemscore.Hbond>
2.0000

> <Gold.PLP.Chemscore.CHOScore>
0.0000

> <Gold.PLP.Chemscore.Metal>
0.0000

> <Gold.Chemscore.Hbonds>
donor molecule, donor type, donor heavy atom, donor atom, acceptor molecule, acceptor atom, score
      P1  H  7997  8008       L1    11  1.00
      P1  H 10752 10765       L1     2  0.78

> <Gold.PLP.Chemscore.Internal.Correction>
0.1362

> <Gold.Rescore>
     Score         DG    S(hbond)    S(metal)    S(lipo)     H(rot)  DE(clash)    DE(int)     intcor
     18.82     -20.10       1.80        0.00     122.73       2.24       0.04       1.24       ----

> <Gold.Chemscore.Fitness>
18.8237

> <Gold.Chemscore.DG>
-20.1033

> <Gold.Chemscore.ZeroCoef>
-5.4800

> <Gold.Chemscore.Hbond>
1.7996

> <Gold.Chemscore.Metal>
0.0000

> <Gold.Chemscore.Lipo>
122.7288

> <Gold.Chemscore.Internal_Hbond>
0.0000

> <Gold.Chemscore.DEClash>
0.0370

> <Gold.Chemscore.DEInternal>
1.2427

> <Gold.Chemscore.Rot>
2.2448

> <Gold.Chemscore.Internal.Correction>
   9.000000E+99

> <Gold.Chemscore.Hbonds>
donor molecule, donor type, donor heavy atom, donor atom, acceptor molecule, acceptor atom, score
      P1  H  7997  8008       L1    11  0.60
      P1  H 10752 10765       L1     2  0.37

> <Gold.Chemscore.Hbond.Weighted>
-6.0108

> <Gold.Chemscore.Metal.Weighted>
-0.0000

> <Gold.Chemscore.Lipo.Weighted>
-14.3593

> <Gold.Chemscore.Internal_Hbond.Weighted>
0.0000

> <Gold.Chemscore.DEClash.Weighted>
0.0370

> <Gold.Chemscore.DEInternal.Weighted>
1.2427

> <Gold.Chemscore.Rot.Weighted>
5.7467

> <Gold.Chemscore.Internal.Correction.Weighted>
   9.000000E+99

> <Gold.Protein.RotatedTorsions>
[ 6907 6896 6895 6894 ] final   -5.35 input  -60.11 | X-H torsion
[ 7974 7965 7964 7962 ] final -159.93 input  175.53 | X-H torsion
[ 8008 7997 7996 7995 ] final  -91.24 input   59.86 | X-H torsion
[ 10167 10162 10161 10158 ] final   15.07 input  -65.29 | X-H torsion
[ 10718 10713 10712 10709 ] final    6.74 input   66.30 | X-H torsion
[ 10763 10752 10751 10750 ] final  -58.62 input  -60.55 | X-H torsion
[ 11005 11000 10999 10996 ] final -124.38 input  -57.11 | X-H torsion

> <Gold.Protein.ActiveResidues>
 VAL166  LYS551  ARG553  GLY616  TRP617  ASP618  TYR619  PRO620  LYS621  CYS622 
 ASP623  PHE694  ASN695  SER759  ASP760  ASP761  ALA762  ILE779  LEU786  VAL792 
 PHE793  MET794  SER795  GLU796  ALA797  LYS798  CYS799  TRP800  GLU811  SER814 

> <Gold.Protein.RotatedAtoms>
  151.4830  135.1053  159.9782 H   0  0  0  0  0  0  0  0  0  0  0  0  # atno 6907 bound_to 6896
  152.4772  133.8162  159.7040 H   0  0  0  0  0  0  0  0  0  0  0  0  # atno 6908 bound_to 6896
  150.8817  133.7301  159.2956 H   0  0  0  0  0  0  0  0  0  0  0  0  # atno 6909 bound_to 6896
  144.7446  140.3615  143.6095 H   0  0  0  0  0  0  0  0  0  0  0  0  # atno 7974 bound_to 7965
  154.7083  140.0521  157.0525 H   0  0  0  0  0  0  0  0  0  0  0  0  # atno 8008 bound_to 7997
  155.0590  140.3187  155.4648 H   0  0  0  0  0  0  0  0  0  0  0  0  # atno 8009 bound_to 7997
  156.2781  140.2102  156.5716 H   0  0  0  0  0  0  0  0  0  0  0  0  # atno 8010 bound_to 7997
  140.5892  143.8829  150.6858 H   0  0  0  0  0  0  0  0  0  0  0  0  # atno 10167 bound_to 10162
  156.9266  130.5810  149.5648 H   0  0  0  0  0  0  0  0  0  0  0  0  # atno 10718 bound_to 10713
  154.2409  135.6343  153.5207 H   0  0  0  0  0  0  0  0  0  0  0  0  # atno 10763 bound_to 10752
  152.9930  135.5542  154.5911 H   0  0  0  0  0  0  0  0  0  0  0  0  # atno 10764 bound_to 10752
  154.5416  135.2895  155.1065 H   0  0  0  0  0  0  0  0  0  0  0  0  # atno 10765 bound_to 10752
  140.9845  134.0626  157.3727 H   0  0  0  0  0  0  0  0  0  0  0  0  # atno 11005 bound_to 11000
  145.7172  139.1700  143.2505 LP  0  0  0  0  0  0  0  0  0  0  0  0  # atno 17320 bound_to 7965
  146.1303  140.7193  142.9415 LP  0  0  0  0  0  0  0  0  0  0  0  0  # atno 17321 bound_to 7965
  140.2347  143.3709  152.1536 LP  0  0  0  0  0  0  0  0  0  0  0  0  # atno 17342 bound_to 10162
  139.5217  144.7049  151.5384 LP  0  0  0  0  0  0  0  0  0  0  0  0  # atno 17343 bound_to 10162
  156.0466  130.5542  150.8895 LP  0  0  0  0  0  0  0  0  0  0  0  0  # atno 17370 bound_to 10713
  157.5874  131.0945  150.9175 LP  0  0  0  0  0  0  0  0  0  0  0  0  # atno 17371 bound_to 10713
  139.8964  135.0146  156.7052 LP  0  0  0  0  0  0  0  0  0  0  0  0  # atno 17394 bound_to 11000
  140.7135  133.9202  155.8100 LP  0  0  0  0  0  0  0  0  0  0  0  0  # atno 17395 bound_to 11000

$$$$
