#       Name:                AV-unprocessed.smi:2243
#       Creating user name   scv26
#       Creation time:       Fri Mar 27 12:27:36 2020


#       File generated by GOLD software.
#

@<TRIPOS>MOLECULE
AV-unprocessed.smi:2243
    41    42     1
SMALL
NO_CHARGES


@<TRIPOS>ATOM
      1 ****        -1.9134  -1.0935  -1.9025 C.3            1 S1                 0.0000
      2 ****        -1.1209  -0.3379  -0.8220 C.3            1 S1                 0.0000
      3 ****         0.2983  -0.4109  -1.1762 N.am           1 S1                 0.0000
      4 ****         1.1565   0.6148  -1.2908 C.2            1 S1                 0.0000
      5 ****         0.7770   1.7678  -1.0739 O.2            1 S1                 0.0000
      6 ****         2.4062   0.2378  -1.6431 N.pl3          1 S1                -1.0000
      7 ****         3.3690   1.1633  -1.7821 C.2            1 S1                 0.0000
      8 ****         3.8028   1.6874  -2.9300 N.2            1 S1                 0.0000
      9 ****         4.7984   2.5877  -2.5831 C.2            1 S1                 0.0000
     10 ****         4.9305   2.5632  -1.2215 C.2            1 S1                 0.0000
     11 ****         4.0368   1.6661  -0.7051 O.3            1 S1                 0.0000
     12 ****        -1.3593  -0.8883   0.6106 C.3            1 S1                 0.0000
     13 ****        -2.8379  -0.8002   1.0409 C.3            1 S1                 0.0000
     14 ****        -3.0311  -1.2829   2.4877 C.3            1 S1                 0.0000
     15 ****        -2.2092  -0.5281   3.3691 O.3            1 S1                 0.0000
     16 ****        -0.8233  -0.6827   3.0900 C.3            1 S1                 0.0000
     17 ****        -0.5091  -0.1654   1.6774 C.3            1 S1                 0.0000
     18 ****        -2.9884  -0.9633  -1.7825 H              1 S1                 0.0000
     19 ****        -1.6984  -2.1624  -1.8786 H              1 S1                 0.0000
     20 ****        -1.6609  -0.7272  -2.8983 H              1 S1                 0.0000
     21 ****        -1.4552   0.7005  -0.8475 H              1 S1                 0.0000
     22 ****         0.6669  -1.3323  -1.3607 H              1 S1                 0.0000
     23 ****         5.3284   3.1669  -3.3245 H              1 S1                 0.0000
     24 ****         5.5632   3.0812  -0.5166 H              1 S1                 0.0000
     25 ****        -1.0721  -1.9411   0.6182 H              1 S1                 0.0000
     26 ****        -3.1865   0.2297   0.9539 H              1 S1                 0.0000
     27 ****        -3.4686  -1.4009   0.3864 H              1 S1                 0.0000
     28 ****        -4.0719  -1.1583   2.7867 H              1 S1                 0.0000
     29 ****        -2.8006  -2.3455   2.5778 H              1 S1                 0.0000
     30 ****        -0.2511  -0.1215   3.8287 H              1 S1                 0.0000
     31 ****        -0.5344  -1.7297   3.1934 H              1 S1                 0.0000
     32 ****         0.5549  -0.3018   1.4836 H              1 S1                 0.0000
     33 ****        -0.6975   0.9081   1.6341 H              1 S1                 0.0000
     34 ****        -0.1724   1.9407  -0.8118 LP             1 S1                 0.0000
     35 ****         1.4187   2.5299  -1.1601 LP             1 S1                 0.0000
     36 ****         2.6130  -0.7280  -1.7998 LP             1 S1                 0.0000
     37 ****         3.4768   1.4745  -3.8511 LP             1 S1                 0.0000
     38 ****         4.5155   0.9359  -0.2175 LP             1 S1                 0.0000
     39 ****         3.4024   2.1230  -0.0816 LP             1 S1                 0.0000
     40 ****        -2.3829  -0.8299   4.3065 LP             1 S1                 0.0000
     41 ****        -2.4479   0.4389   3.2806 LP             1 S1                 0.0000
@<TRIPOS>BOND
    1    1    2 1     
    2    1   18 1     
    3    1   19 1     
    4    1   20 1     
    5    2    3 1     
    6    2   12 1     
    7    2   21 1     
    8    3   22 1     
    9    3    4 am    
   10    4    6 1     
   11    4    5 2     
   12    6    7 1     
   13    7   11 1     
   14    7    8 2     
   15    8    9 1     
   16    9   23 1     
   17    9   10 2     
   18   10   24 1     
   19   10   11 1     
   20   12   17 1     
   21   12   13 1     
   22   12   25 1     
   23   13   14 1     
   24   13   26 1     
   25   13   27 1     
   26   14   15 1     
   27   14   28 1     
   28   14   29 1     
   29   15   16 1     
   30   16   17 1     
   31   16   30 1     
   32   16   31 1     
   33   17   32 1     
   34   17   33 1     
   35    5   34 1     
   36    5   35 1     
   37    6   36 1     
   38    8   37 1     
   39   11   38 1     
   40   11   39 1     
   41   15   40 1     
   42   15   41 1     
@<TRIPOS>SUBSTRUCTURE
      1 S1             1
@<TRIPOS>SET
LONE_PAIRS      STATIC     ATOMS    <user>   **** ""
8 34 35 36 37 38 39 40 41
DONOR_HYDROGENS      STATIC     ATOMS    <user>   **** ""
1 22
ATOM$BLUE        STATIC     ATOMS    COLORGROUP SYSTEM
8 34 35 36 37 38 39 40 41
ATOM$RED        STATIC     ATOMS    COLORGROUP SYSTEM
1 22
