AV-unprocessed.smi:3253|AV-procd|sdf|12447|dock1
  -GOLD-   2272018343D 1   1.00000     0.00000
 Structure written by MMmdl.
 37 38  0  0  0  0  0  0  0  0  2 V2000
  146.2233  130.3525  151.8155 C   0  0  0  0  0  0  0  0  0  0  0  0
  146.6519  131.5882  152.6232 C   0  0  2  0  0  0  0  0  0  0  0  0
  146.4844  132.9095  151.8401 C   0  0  0  0  0  0  0  0  0  0  0  0
  145.5169  132.8032  150.7444 N   0  0  0  0  0  0  0  0  0  0  0  0
  145.7017  132.2141  149.5197 C   0  0  0  0  0  0  0  0  0  0  0  0
  144.5232  132.3612  148.8343 C   0  0  0  0  0  0  0  0  0  0  0  0
  143.6718  133.0378  149.6666 N   0  3  0  0  0  0  0  0  0  0  0  0
  144.2791  133.3081  150.8267 C   0  0  0  0  0  0  0  0  0  0  0  0
  148.0374  131.4237  153.0530 N   0  0  0  0  0  0  0  0  0  0  0  0
  148.4549  131.4076  154.3287 C   0  0  0  0  0  0  0  0  0  0  0  0
  147.6956  131.5511  155.2878 O   0  0  0  0  0  0  0  0  0  0  0  0
  149.9602  131.1978  154.5563 C   0  0  1  0  0  0  0  0  0  0  0  0
  150.5700  132.3479  155.3836 C   0  0  0  0  0  0  0  0  0  0  0  0
  150.9544  131.6923  156.6995 C   0  0  0  0  0  0  0  0  0  0  0  0
  151.3899  132.3258  157.6596 O   0  0  0  0  0  0  0  0  0  0  0  0
  150.7449  130.3737  156.6556 N   0  0  0  0  0  0  0  0  0  0  0  0
  150.9930  129.4360  157.7422 C   0  0  0  0  0  0  0  0  0  0  0  0
  150.2621  129.9158  155.3640 C   0  0  0  0  0  0  0  0  0  0  0  0
  145.1655  130.3916  151.5551 H   0  0  0  0  0  0  0  0  0  0  0  0
  146.3803  129.4370  152.3871 H   0  0  0  0  0  0  0  0  0  0  0  0
  146.7918  130.2678  150.8886 H   0  0  0  0  0  0  0  0  0  0  0  0
  146.0228  131.6279  153.5148 H   0  0  0  0  0  0  0  0  0  0  0  0
  146.1479  133.7137  152.4963 H   0  0  0  0  0  0  0  0  0  0  0  0
  147.4378  133.2277  151.4159 H   0  0  0  0  0  0  0  0  0  0  0  0
  146.6319  131.7436  149.2353 H   0  0  0  0  0  0  0  0  0  0  0  0
  144.2346  132.0446  147.8425 H   0  0  0  0  0  0  0  0  0  0  0  0
  143.8532  133.8290  151.6661 H   0  0  0  0  0  0  0  0  0  0  0  0
  148.7292  131.3001  152.3275 H   0  0  0  0  0  0  0  0  0  0  0  0
  150.4603  131.1387  153.5878 H   0  0  0  0  0  0  0  0  0  0  0  0
  151.4633  132.7476  154.9025 H   0  0  0  0  0  0  0  0  0  0  0  0
  149.8818  133.1770  155.5578 H   0  0  0  0  0  0  0  0  0  0  0  0
  152.0449  129.4520  158.0295 H   0  0  0  0  0  0  0  0  0  0  0  0
  150.7378  128.4173  157.4483 H   0  0  0  0  0  0  0  0  0  0  0  0
  150.3935  129.6964  158.6154 H   0  0  0  0  0  0  0  0  0  0  0  0
  149.3893  129.2721  155.4887 H   0  0  0  0  0  0  0  0  0  0  0  0
  151.0390  129.3248  154.8772 H   0  0  0  0  0  0  0  0  0  0  0  0
  142.7205  133.2994  149.4388 H   0  0  0  0  0  0  0  0  0  0  0  0
  1  2  1  0  0  0  0
  1 19  1  0  0  0  0
  1 20  1  0  0  0  0
  1 21  1  0  0  0  0
  2  3  1  0  0  0  0
  2  9  1  0  0  0  0
  2 22  1  0  0  0  0
  3  4  1  0  0  0  0
  3 23  1  0  0  0  0
  3 24  1  0  0  0  0
  4  8  1  0  0  0  0
  4  5  1  0  0  0  0
  5  6  2  0  0  0  0
  5 25  1  0  0  0  0
  6  7  1  0  0  0  0
  6 26  1  0  0  0  0
  7  8  2  0  0  0  0
  7 37  1  0  0  0  0
  8 27  1  0  0  0  0
  9 10  1  0  0  0  0
  9 28  1  0  0  0  0
 10 11  2  0  0  0  0
 10 12  1  0  0  0  0
 12 18  1  0  0  0  0
 12 13  1  0  0  0  0
 12 29  1  0  0  0  0
 13 14  1  0  0  0  0
 13 30  1  0  0  0  0
 13 31  1  0  0  0  0
 14 15  2  0  0  0  0
 14 16  1  0  0  0  0
 16 17  1  0  0  0  0
 16 18  1  0  0  0  0
 17 32  1  0  0  0  0
 17 33  1  0  0  0  0
 17 34  1  0  0  0  0
 18 35  1  0  0  0  0
 18 36  1  0  0  0  0
M  CHG  1   7   1
M  END
> <s_m_source_file>
AV-unprocessed.smi

> <i_m_source_file_index>
3253

> <i_lp_mmshare_version>
43012

> <i_f3d_flags>
0

> <s_epik_input>
W2NIXTFuW2NIXVtjSF1uMVtDSDJdW0NAQEhdKFtDSDNdKVtOSF1DKD1PKVtDQEBIXTJbQ0gyXUMoPU8pTihbQ0gzXSlbQ0gyXTI=

> <s_epik_cmdline>
J2VwaWtfcHl0aG9uJywgJy1waCcsICc3LjAnLCAnLXRuJywgJzgnLCAnLW1hJywgJzIwMCcsICctbWV0YWxfYmluZGluZycsICctaW1hZScsICc8aW5maWxlLm1hZT4nLCAnLW9tYWUnLCAnPG91dGZpbGUubWFlPic=

> <r_lp_tautomer_probability>
1

> <r_epik_Ionization_Penalty>
0.251561

> <r_epik_Ionization_Penalty_Charging>
0

> <r_epik_Ionization_Penalty_Neutral>
0.251561

> <r_epik_State_Penalty>
0.242926

> <r_epik_Charging_Adjusted_Penalty>
0.242926

> <i_epik_Tot_Q>
1

> <i_epik_Tot_abs_Q>
1

> <r_epik_Metal_State_Penalty>
0.533885

> <b_epik_Metal_Only>
0

> <s_lp_Force_Field>
OPLS_2005

> <r_lp_Energy>
14.6529

> <b_lp_Chiralities_Consistent>
1

> <s_lp_Variant>
AV-unprocessed.smi:3253-3

> <Gold.Version>
5.8.1

> <Gold.Id.Protein>
6NUR|6NUR_protein|mol2

> <Gold.PLP.Fitness>
42.7092

> <Gold.PLP.PLP>
-30.7545

> <Gold.PLP.part.hbond>
-3.0000

> <Gold.PLP.part.metal>
0.0000

> <Gold.PLP.part.buried>
-3.8779

> <Gold.PLP.part.nonpolar>
-23.7996

> <Gold.PLP.part.repulsive>
0.0931

> <Gold.PLP.ligand.clash>
0.0000

> <Gold.PLP.ligand.torsion>
0.7523

> <Gold.PLP.Chemscore.Hbond>
3.9600

> <Gold.PLP.Chemscore.CHOScore>
0.5101

> <Gold.PLP.Chemscore.Metal>
0.0000

> <Gold.Chemscore.Hbonds>
donor molecule, donor type, donor heavy atom, donor atom, acceptor molecule, acceptor atom, score
      L1  H     7    37       P1 10186  1.92
      L1  H     9    28       P1 10747  0.76
      P1  H  6896  6907       L1    15  1.00
      L1  C     5    25       P1 10747  0.61

> <Gold.PLP.Chemscore.Internal.Correction>
0.0489

> <Gold.Rescore>
     Score         DG    S(hbond)    S(metal)    S(lipo)     H(rot)  DE(clash)    DE(int)     intcor
     15.38     -17.10       2.79        0.00      64.06       2.03       0.01       1.71       ----

> <Gold.Chemscore.Fitness>
15.3801

> <Gold.Chemscore.DG>
-17.0966

> <Gold.Chemscore.ZeroCoef>
-5.4800

> <Gold.Chemscore.Hbond>
2.7932

> <Gold.Chemscore.Metal>
0.0000

> <Gold.Chemscore.Lipo>
64.0571

> <Gold.Chemscore.Internal_Hbond>
0.0000

> <Gold.Chemscore.DEClash>
0.0075

> <Gold.Chemscore.DEInternal>
1.7091

> <Gold.Chemscore.Rot>
2.0341

> <Gold.Chemscore.Internal.Correction>
   9.000000E+99

> <Gold.Chemscore.Hbonds>
donor molecule, donor type, donor heavy atom, donor atom, acceptor molecule, acceptor atom, score
      L1  H     7    37       P1 10186  0.90
      L1  H     9    28       P1 10747  0.64
      P1  H  6896  6907       L1    15  0.96

> <Gold.Chemscore.Hbond.Weighted>
-9.3292

> <Gold.Chemscore.Metal.Weighted>
-0.0000

> <Gold.Chemscore.Lipo.Weighted>
-7.4947

> <Gold.Chemscore.Internal_Hbond.Weighted>
0.0000

> <Gold.Chemscore.DEClash.Weighted>
0.0075

> <Gold.Chemscore.DEInternal.Weighted>
1.7091

> <Gold.Chemscore.Rot.Weighted>
5.2072

> <Gold.Chemscore.Internal.Correction.Weighted>
   9.000000E+99

> <Gold.Protein.RotatedTorsions>
[ 6907 6896 6895 6894 ] final  176.05 input  -60.11 | X-H torsion
[ 7974 7965 7964 7962 ] final -119.29 input  175.53 | X-H torsion
[ 8008 7997 7996 7995 ] final -102.49 input   59.86 | X-H torsion
[ 10167 10162 10161 10158 ] final   74.01 input  -65.29 | X-H torsion
[ 10718 10713 10712 10709 ] final  -78.56 input   66.30 | X-H torsion
[ 10763 10752 10751 10750 ] final  139.23 input  -60.55 | X-H torsion
[ 11005 11000 10999 10996 ] final  -81.35 input  -57.11 | X-H torsion

> <Gold.Protein.ActiveResidues>
 VAL166  LYS551  ARG553  GLY616  TRP617  ASP618  TYR619  PRO620  LYS621  CYS622 
 ASP623  PHE694  ASN695  SER759  ASP760  ASP761  ALA762  ILE779  LEU786  VAL792 
 PHE793  MET794  SER795  GLU796  ALA797  LYS798  CYS799  TRP800  GLU811  SER814 

> <Gold.Protein.RotatedAtoms>
  151.7263  133.3316  159.3328 H   0  0  0  0  0  0  0  0  0  0  0  0  # atno 6907 bound_to 6896
  150.7631  134.6403  159.6243 H   0  0  0  0  0  0  0  0  0  0  0  0  # atno 6908 bound_to 6896
  152.3620  134.6861  160.0256 H   0  0  0  0  0  0  0  0  0  0  0  0  # atno 6909 bound_to 6896
  145.0642  140.8312  143.4134 H   0  0  0  0  0  0  0  0  0  0  0  0  # atno 7974 bound_to 7965
  154.8574  140.0428  157.1643 H   0  0  0  0  0  0  0  0  0  0  0  0  # atno 8008 bound_to 7997
  154.8876  140.2982  155.5368 H   0  0  0  0  0  0  0  0  0  0  0  0  # atno 8009 bound_to 7997
  156.2998  140.2399  156.3888 H   0  0  0  0  0  0  0  0  0  0  0  0  # atno 8010 bound_to 7997
  140.0183  144.5561  150.7602 H   0  0  0  0  0  0  0  0  0  0  0  0  # atno 10167 bound_to 10162
  156.0114  130.4521  150.3515 H   0  0  0  0  0  0  0  0  0  0  0  0  # atno 10718 bound_to 10713
  153.9027  135.3020  155.3448 H   0  0  0  0  0  0  0  0  0  0  0  0  # atno 10763 bound_to 10752
  154.7662  135.4909  153.9563 H   0  0  0  0  0  0  0  0  0  0  0  0  # atno 10764 bound_to 10752
  153.1236  135.6788  153.9395 H   0  0  0  0  0  0  0  0  0  0  0  0  # atno 10765 bound_to 10752
  141.1666  133.7192  156.8409 H   0  0  0  0  0  0  0  0  0  0  0  0  # atno 11005 bound_to 11000
  145.1371  139.2595  143.5509 LP  0  0  0  0  0  0  0  0  0  0  0  0  # atno 17320 bound_to 7965
  146.3526  140.1038  142.8607 LP  0  0  0  0  0  0  0  0  0  0  0  0  # atno 17321 bound_to 7965
  140.7353  143.2739  151.3802 LP  0  0  0  0  0  0  0  0  0  0  0  0  # atno 17342 bound_to 10162
  139.6157  144.1007  152.2343 LP  0  0  0  0  0  0  0  0  0  0  0  0  # atno 17343 bound_to 10162
  157.1607  131.0344  151.2842 LP  0  0  0  0  0  0  0  0  0  0  0  0  # atno 17370 bound_to 10713
  157.4313  130.7492  149.6992 LP  0  0  0  0  0  0  0  0  0  0  0  0  # atno 17371 bound_to 10713
  140.1984  134.8915  157.3140 LP  0  0  0  0  0  0  0  0  0  0  0  0  # atno 17394 bound_to 11000
  140.2214  134.4018  155.7564 LP  0  0  0  0  0  0  0  0  0  0  0  0  # atno 17395 bound_to 11000

$$$$
