#       Name:                AV-unprocessed.smi:3148
#       Creating user name   scv26
#       Creation time:       Fri Mar 27 17:39:53 2020


#       File generated by GOLD software.
#

@<TRIPOS>MOLECULE
AV-unprocessed.smi:3148
    40    42     1
SMALL
NO_CHARGES


@<TRIPOS>ATOM
      1 ****        -3.8340  -0.9733   0.1998 C.3            1 S1                 0.0000
      2 ****        -3.1146  -2.1997   0.1353 O.3            1 S1                 0.0000
      3 ****        -1.7445  -2.1579   0.2901 C.ar           1 S1                 0.0000
      4 ****        -1.0019  -3.3544   0.2247 C.ar           1 S1                 0.0000
      5 ****         0.3940  -3.2363   0.3895 C.ar           1 S1                 0.0000
      6 ****         1.3029  -4.4456   0.3327 C.3            1 S1                 0.0000
      7 ****         0.9884  -2.0410   0.5989 N.ar           1 S1                 0.0000
      8 ****         0.1944  -0.9691   0.6421 C.ar           1 S1                 0.0000
      9 ****         0.8354   0.2381   0.8497 N.pl3          1 S1                 0.0000
     10 ****         0.1989   1.5417   0.6990 C.3            1 S1                 0.0000
     11 ****         1.1078   2.7060   1.0988 C.3            1 S1                 0.0000
     12 ****         1.0536   3.5913  -0.1545 C.3            1 S1                 0.0000
     13 ****         1.8874   2.9996  -1.2984 C.3            1 S1                 0.0000
     14 ****         1.0256   1.8147  -1.7299 C.3            1 S1                 0.0000
     15 ****        -0.1598   1.9112  -0.7541 C.3            1 S1                 0.0000
     16 ****        -0.2569   3.3194  -0.6230 O.3            1 S1                 0.0000
     17 ****        -1.1358  -0.9645   0.5004 N.ar           1 S1                 0.0000
     18 ****        -4.8959  -1.1702   0.0533 H              1 S1                 0.0000
     19 ****        -3.5144  -0.2818  -0.5812 H              1 S1                 0.0000
     20 ****        -3.7177  -0.4927   1.1723 H              1 S1                 0.0000
     21 ****        -1.4804  -4.3077   0.0554 H              1 S1                 0.0000
     22 ****         0.7257  -5.3704   0.3108 H              1 S1                 0.0000
     23 ****         1.9573  -4.4734   1.2044 H              1 S1                 0.0000
     24 ****         1.9235  -4.4087  -0.5628 H              1 S1                 0.0000
     25 ****         1.8413   0.2116   0.9311 H              1 S1                 0.0000
     26 ****        -0.7015   1.5721   1.3145 H              1 S1                 0.0000
     27 ****         0.6942   3.2273   1.9626 H              1 S1                 0.0000
     28 ****         2.1282   2.4061   1.3420 H              1 S1                 0.0000
     29 ****         1.2536   4.6454   0.0388 H              1 S1                 0.0000
     30 ****         1.9905   3.7147  -2.1154 H              1 S1                 0.0000
     31 ****         2.8858   2.7028  -0.9754 H              1 S1                 0.0000
     32 ****         0.6862   1.9485  -2.7574 H              1 S1                 0.0000
     33 ****         1.5517   0.8615  -1.6729 H              1 S1                 0.0000
     34 ****        -1.0706   1.4361  -1.1197 H              1 S1                 0.0000
     35 ****        -3.3001  -2.6062  -0.7594 LP             1 S1                 0.0000
     36 ****        -3.4765  -2.7945   0.8531 LP             1 S1                 0.0000
     37 ****         1.9785  -1.9631   0.7162 LP             1 S1                 0.0000
     38 ****        -0.4417   3.7653  -1.4988 LP             1 S1                 0.0000
     39 ****        -0.9551   3.5866   0.0410 LP             1 S1                 0.0000
     40 ****        -1.6605  -0.1146   0.5476 LP             1 S1                 0.0000
@<TRIPOS>BOND
    1    1    2 1     
    2    1   18 1     
    3    1   19 1     
    4    1   20 1     
    5    2    3 1     
    6    3   17 ar    
    7    3    4 ar    
    8    4    5 ar    
    9    4   21 1     
   10    5    6 1     
   11    5    7 ar    
   12    6   22 1     
   13    6   23 1     
   14    6   24 1     
   15    7    8 ar    
   16    8    9 1     
   17    8   17 ar    
   18    9   10 1     
   19    9   25 1     
   20   10   15 1     
   21   10   11 1     
   22   10   26 1     
   23   11   12 1     
   24   11   27 1     
   25   11   28 1     
   26   12   16 1     
   27   12   13 1     
   28   12   29 1     
   29   13   14 1     
   30   13   30 1     
   31   13   31 1     
   32   14   15 1     
   33   14   32 1     
   34   14   33 1     
   35   15   16 1     
   36   15   34 1     
   37    2   35 1     
   38    2   36 1     
   39    7   37 1     
   40   16   38 1     
   41   16   39 1     
   42   17   40 1     
@<TRIPOS>SUBSTRUCTURE
      1 S1             1
@<TRIPOS>SET
LONE_PAIRS      STATIC     ATOMS    <user>   **** ""
6 35 36 37 38 39 40
DONOR_HYDROGENS      STATIC     ATOMS    <user>   **** ""
1 25
ATOM$BLUE        STATIC     ATOMS    COLORGROUP SYSTEM
6 35 36 37 38 39 40
ATOM$RED        STATIC     ATOMS    COLORGROUP SYSTEM
1 25
