#       Name:                AV-unprocessed.smi:489
#       Creating user name   scv26
#       Creation time:       Thu Mar 26 23:13:52 2020


#       File generated by GOLD software.
#

@<TRIPOS>MOLECULE
AV-unprocessed.smi:489
    50    51     1
SMALL
NO_CHARGES


@<TRIPOS>ATOM
      1 ****        -4.1214   2.5605  -2.4746 C.3            1 S1                 0.0000
      2 ****        -3.3360   1.2832  -2.3459 C.2            1 S1                 0.0000
      3 ****        -2.0540   1.3737  -2.4830 N.2            1 S1                 0.0000
      4 ****        -1.2389   0.2629  -2.3808 N.am           1 S1                 0.0000
      5 ****         0.1929   0.5527  -2.5469 C.3            1 S1                 0.0000
      6 ****         0.9502   0.5614  -1.2109 C.2            1 S1                 0.0000
      7 ****         0.4275   1.0849  -0.2237 O.2            1 S1                 0.0000
      8 ****         2.1682  -0.0268  -1.2403 N.am           1 S1                 0.0000
      9 ****         3.0798  -0.2355  -0.2612 C.2            1 S1                 0.0000
     10 ****         4.1564  -0.7741  -0.5136 O.2            1 S1                 0.0000
     11 ****         2.7474   0.1599   0.9823 N.am           1 S1                 0.0000
     12 ****         3.5844   0.0119   2.1694 C.3            1 S1                 0.0000
     13 ****         3.6471  -1.4528   2.6533 C.3            1 S1                 0.0000
     14 ****         3.3435  -1.4193   4.1518 C.3            1 S1                 0.0000
     15 ****         2.4386  -0.2038   4.3247 C.3            1 S1                 0.0000
     16 ****         3.0024   0.8229   3.3417 C.3            1 S1                 0.0000
     17 ****        -1.6829  -1.0076  -2.1564 C.2            1 S1                 0.0000
     18 ****        -0.9211  -1.9740  -2.0954 O.2            1 S1                 0.0000
     19 ****        -3.1355  -1.1017  -1.9943 C.2            1 S1                 0.0000
     20 ****        -3.6400  -2.4118  -1.7368 C.1            1 S1                 0.0000
     21 ****        -4.0690  -3.4662  -1.5261 N.1            1 S1                 0.0000
     22 ****        -3.9449  -0.0165  -2.0809 C.2            1 S1                 0.0000
     23 ****        -5.4584  -0.0611  -1.9213 C.3            1 S1                 0.0000
     24 ****        -4.7918   2.5164  -3.3331 H              1 S1                 0.0000
     25 ****        -3.4713   3.4264  -2.6086 H              1 S1                 0.0000
     26 ****        -4.7235   2.7375  -1.5834 H              1 S1                 0.0000
     27 ****         0.6388  -0.1725  -3.2307 H              1 S1                 0.0000
     28 ****         0.3343   1.5261  -3.0197 H              1 S1                 0.0000
     29 ****         2.4458  -0.3739  -2.1468 H              1 S1                 0.0000
     30 ****         1.8440   0.5928   1.1131 H              1 S1                 0.0000
     31 ****         4.5873   0.3812   1.9473 H              1 S1                 0.0000
     32 ****         2.8885  -2.0569   2.1529 H              1 S1                 0.0000
     33 ****         4.6130  -1.9131   2.4435 H              1 S1                 0.0000
     34 ****         2.8834  -2.3417   4.5073 H              1 S1                 0.0000
     35 ****         4.2682  -1.2704   4.7111 H              1 S1                 0.0000
     36 ****         1.4172  -0.4625   4.0419 H              1 S1                 0.0000
     37 ****         2.4186   0.1636   5.3510 H              1 S1                 0.0000
     38 ****         3.8065   1.3780   3.8272 H              1 S1                 0.0000
     39 ****         2.2511   1.5521   3.0349 H              1 S1                 0.0000
     40 ****        -5.8309  -1.0772  -1.7967 H              1 S1                 0.0000
     41 ****        -5.9512   0.3598  -2.7982 H              1 S1                 0.0000
     42 ****        -5.7651   0.5118  -1.0458 H              1 S1                 0.0000
     43 ****        -1.6433   2.2667  -2.6669 LP             1 S1                 0.0000
     44 ****        -0.4802   1.4978  -0.2984 LP             1 S1                 0.0000
     45 ****         0.9115   1.0963   0.6513 LP             1 S1                 0.0000
     46 ****         4.3645  -1.0619  -1.4484 LP             1 S1                 0.0000
     47 ****         4.8236  -0.9242   0.2160 LP             1 S1                 0.0000
     48 ****         0.0634  -1.8428  -2.2122 LP             1 S1                 0.0000
     49 ****        -1.2872  -2.8896  -1.9290 LP             1 S1                 0.0000
     50 ****        -4.4396  -4.3770  -1.3441 LP             1 S1                 0.0000
@<TRIPOS>BOND
    1    1    2 1     
    2    1   24 1     
    3    1   25 1     
    4    1   26 1     
    5    2   22 1     
    6    2    3 2     
    7    3    4 1     
    8    4    5 1     
    9    4   17 am    
   10    5    6 1     
   11    5   27 1     
   12    5   28 1     
   13    6    7 2     
   14    6    8 1     
   15    8    9 1     
   16    8   29 1     
   17    9   10 2     
   18    9   11 1     
   19   11   12 1     
   20   11   30 1     
   21   12   16 1     
   22   12   13 1     
   23   12   31 1     
   24   13   14 1     
   25   13   32 1     
   26   13   33 1     
   27   14   15 1     
   28   14   34 1     
   29   14   35 1     
   30   15   16 1     
   31   15   36 1     
   32   15   37 1     
   33   16   38 1     
   34   16   39 1     
   35   17   18 2     
   36   17   19 1     
   37   19   20 1     
   38   19   22 2     
   39   20   21 3     
   40   22   23 1     
   41   23   40 1     
   42   23   41 1     
   43   23   42 1     
   44    3   43 1     
   45    7   44 1     
   46    7   45 1     
   47   10   46 1     
   48   10   47 1     
   49   18   48 1     
   50   18   49 1     
   51   21   50 1     
@<TRIPOS>SUBSTRUCTURE
      1 S1             1
@<TRIPOS>SET
LONE_PAIRS      STATIC     ATOMS    <user>   **** ""
8 43 44 45 46 47 48 49 50
DONOR_HYDROGENS      STATIC     ATOMS    <user>   **** ""
2 29 30
ATOM$BLUE        STATIC     ATOMS    COLORGROUP SYSTEM
8 43 44 45 46 47 48 49 50
ATOM$RED        STATIC     ATOMS    COLORGROUP SYSTEM
2 29 30
