AV-unprocessed.smi:959|AV-procd|sdf|4269|dock8
  -GOLD-   22720 2173D 1   1.00000     0.00000
 Structure written by MMmdl.
 33 34  0  0  0  0  0  0  0  0  2 V2000
  152.3846  144.9838  158.7316 C   0  0  0  0  0  0  0  0  0  0  0  0
  151.7019  143.9546  159.6447 C   0  0  0  0  0  0  0  0  0  0  0  0
  151.9344  144.2780  161.1309 C   0  0  0  0  0  0  0  0  0  0  0  0
  152.1275  142.6009  159.2983 N   0  0  0  0  0  0  0  0  0  0  0  0
  153.1851  141.9078  159.7569 C   0  0  0  0  0  0  0  0  0  0  0  0
  153.3347  140.6898  159.2414 N   0  0  0  0  0  0  0  0  0  0  0  0
  152.2962  140.5649  158.3455 N   0  0  0  0  0  0  0  0  0  0  0  0
  151.6290  141.7258  158.3935 C   0  0  0  0  0  0  0  0  0  0  0  0
  150.4185  142.0017  157.5435 C   0  0  2  0  0  0  0  0  0  0  0  0
  149.2239  141.1161  157.9445 C   0  0  0  0  0  0  0  0  0  0  0  0
  148.0102  141.4096  157.0496 C   0  0  0  0  0  0  0  0  0  0  0  0
  148.3763  141.2697  155.5626 C   0  0  0  0  0  0  0  0  0  0  0  0
  149.5214  142.1418  155.2221 N   0  3  0  0  0  0  0  0  0  0  0  0
  150.7242  141.8604  156.0370 C   0  0  0  0  0  0  0  0  0  0  0  0
  152.0416  145.9945  158.9553 H   0  0  0  0  0  0  0  0  0  0  0  0
  152.1683  144.7882  157.6812 H   0  0  0  0  0  0  0  0  0  0  0  0
  153.4679  144.9654  158.8564 H   0  0  0  0  0  0  0  0  0  0  0  0
  150.6251  144.0113  159.4871 H   0  0  0  0  0  0  0  0  0  0  0  0
  151.5115  145.2501  161.3865 H   0  0  0  0  0  0  0  0  0  0  0  0
  152.9960  144.3118  161.3776 H   0  0  0  0  0  0  0  0  0  0  0  0
  151.4610  143.5368  161.7759 H   0  0  0  0  0  0  0  0  0  0  0  0
  153.8699  142.2988  160.4946 H   0  0  0  0  0  0  0  0  0  0  0  0
  150.1178  143.0372  157.6947 H   0  0  0  0  0  0  0  0  0  0  0  0
  149.4938  140.0626  157.8563 H   0  0  0  0  0  0  0  0  0  0  0  0
  148.9644  141.2844  158.9904 H   0  0  0  0  0  0  0  0  0  0  0  0
  147.1921  140.7329  157.2980 H   0  0  0  0  0  0  0  0  0  0  0  0
  147.6467  142.4194  157.2445 H   0  0  0  0  0  0  0  0  0  0  0  0
  148.6305  140.2347  155.3293 H   0  0  0  0  0  0  0  0  0  0  0  0
  147.5256  141.5383  154.9359 H   0  0  0  0  0  0  0  0  0  0  0  0
  149.7499  142.0164  154.2462 H   0  0  0  0  0  0  0  0  0  0  0  0
  151.5163  142.5506  155.7437 H   0  0  0  0  0  0  0  0  0  0  0  0
  151.0763  140.8539  155.8057 H   0  0  0  0  0  0  0  0  0  0  0  0
  149.2485  143.1027  155.3721 H   0  0  0  0  0  0  0  0  0  0  0  0
  1  2  1  0  0  0  0
  1 15  1  0  0  0  0
  1 16  1  0  0  0  0
  1 17  1  0  0  0  0
  2  3  1  0  0  0  0
  2  4  1  0  0  0  0
  2 18  1  0  0  0  0
  3 19  1  0  0  0  0
  3 20  1  0  0  0  0
  3 21  1  0  0  0  0
  4  8  1  0  0  0  0
  4  5  1  0  0  0  0
  5  6  2  0  0  0  0
  5 22  1  0  0  0  0
  6  7  1  0  0  0  0
  7  8  2  0  0  0  0
  8  9  1  0  0  0  0
  9 14  1  0  0  0  0
  9 10  1  0  0  0  0
  9 23  1  0  0  0  0
 10 11  1  0  0  0  0
 10 24  1  0  0  0  0
 10 25  1  0  0  0  0
 11 12  1  0  0  0  0
 11 26  1  0  0  0  0
 11 27  1  0  0  0  0
 12 13  1  0  0  0  0
 12 28  1  0  0  0  0
 12 29  1  0  0  0  0
 13 14  1  0  0  0  0
 13 30  1  0  0  0  0
 13 33  1  0  0  0  0
 14 31  1  0  0  0  0
 14 32  1  0  0  0  0
M  CHG  1  13   1
M  END
> <s_m_source_file>
AV-unprocessed.smi

> <i_m_source_file_index>
959

> <i_lp_mmshare_version>
43012

> <i_f3d_flags>
0

> <s_epik_input>
W0NIM11bQ0hdKFtDSDNdKW4xW2NIXW5uYzFbQ0BASF0yW0NIMl1bQ0gyXVtDSDJdW05IXVtDSDJdMg==

> <s_epik_cmdline>
J2VwaWtfcHl0aG9uJywgJy1waCcsICc3LjAnLCAnLXRuJywgJzgnLCAnLW1hJywgJzIwMCcsICctbWV0YWxfYmluZGluZycsICctaW1hZScsICc8aW5maWxlLm1hZT4nLCAnLW9tYWUnLCAnPG91dGZpbGUubWFlPic=

> <r_lp_tautomer_probability>
1

> <r_epik_Ionization_Penalty>
0.000442722

> <r_epik_Ionization_Penalty_Charging>
0.000426856

> <r_epik_Ionization_Penalty_Neutral>
1.58656e-05

> <r_epik_State_Penalty>
-0

> <r_epik_Charging_Adjusted_Penalty>
0.000426856

> <i_epik_Tot_Q>
1

> <i_epik_Tot_abs_Q>
1

> <r_epik_Metal_State_Penalty>
-0

> <b_epik_Metal_Only>
0

> <s_lp_Force_Field>
OPLS_2005

> <r_lp_Energy>
20.311

> <b_lp_Chiralities_Consistent>
1

> <s_lp_Variant>
AV-unprocessed.smi:959-1

> <Gold.Version>
5.8.1

> <Gold.Id.Protein>
6NUR|6NUR_protein|mol2

> <Gold.PLP.Fitness>
36.3402

> <Gold.PLP.PLP>
-31.8502

> <Gold.PLP.part.hbond>
-1.0000

> <Gold.PLP.part.metal>
0.0000

> <Gold.PLP.part.buried>
-5.8439

> <Gold.PLP.part.nonpolar>
-25.4920

> <Gold.PLP.part.repulsive>
0.2002

> <Gold.PLP.ligand.clash>
0.0000

> <Gold.PLP.ligand.torsion>
0.7911

> <Gold.PLP.Chemscore.Hbond>
2.0000

> <Gold.PLP.Chemscore.CHOScore>
0.0000

> <Gold.PLP.Chemscore.Metal>
0.0000

> <Gold.Chemscore.Hbonds>
donor molecule, donor type, donor heavy atom, donor atom, acceptor molecule, acceptor atom, score
      L1  H    13    33       P1  8028  2.00

> <Gold.PLP.Chemscore.Internal.Correction>
0.0722

> <Gold.Rescore>
     Score         DG    S(hbond)    S(metal)    S(lipo)     H(rot)  DE(clash)    DE(int)     intcor
     12.46     -13.11       1.00        0.00      63.73       1.24       0.02       0.63       ----

> <Gold.Chemscore.Fitness>
12.4568

> <Gold.Chemscore.DG>
-13.1119

> <Gold.Chemscore.ZeroCoef>
-5.4800

> <Gold.Chemscore.Hbond>
0.9997

> <Gold.Chemscore.Metal>
0.0000

> <Gold.Chemscore.Lipo>
63.7286

> <Gold.Chemscore.Internal_Hbond>
0.0000

> <Gold.Chemscore.DEClash>
0.0231

> <Gold.Chemscore.DEInternal>
0.6320

> <Gold.Chemscore.Rot>
1.2357

> <Gold.Chemscore.Internal.Correction>
   9.000000E+99

> <Gold.Chemscore.Hbonds>
donor molecule, donor type, donor heavy atom, donor atom, acceptor molecule, acceptor atom, score
      L1  H    13    33       P1  8028  1.00

> <Gold.Chemscore.Hbond.Weighted>
-3.3391

> <Gold.Chemscore.Metal.Weighted>
-0.0000

> <Gold.Chemscore.Lipo.Weighted>
-7.4562

> <Gold.Chemscore.Internal_Hbond.Weighted>
0.0000

> <Gold.Chemscore.DEClash.Weighted>
0.0231

> <Gold.Chemscore.DEInternal.Weighted>
0.6320

> <Gold.Chemscore.Rot.Weighted>
3.1634

> <Gold.Chemscore.Internal.Correction.Weighted>
   9.000000E+99

> <Gold.Protein.RotatedTorsions>
[ 6907 6896 6895 6894 ] final   -0.03 input  -60.11 | X-H torsion
[ 7974 7965 7964 7962 ] final  -94.11 input  175.53 | X-H torsion
[ 8008 7997 7996 7995 ] final   14.43 input   59.86 | X-H torsion
[ 10167 10162 10161 10158 ] final   29.07 input  -65.29 | X-H torsion
[ 10718 10713 10712 10709 ] final   -9.97 input   66.30 | X-H torsion
[ 10763 10752 10751 10750 ] final -158.75 input  -60.55 | X-H torsion
[ 11005 11000 10999 10996 ] final -155.42 input  -57.11 | X-H torsion

> <Gold.Protein.ActiveResidues>
 VAL166  LYS551  ARG553  GLY616  TRP617  ASP618  TYR619  PRO620  LYS621  CYS622 
 ASP623  PHE694  ASN695  SER759  ASP760  ASP761  ALA762  ILE779  LEU786  VAL792 
 PHE793  MET794  SER795  GLU796  ALA797  LYS798  CYS799  TRP800  GLU811  SER814 

> <Gold.Protein.RotatedAtoms>
  151.5689  135.1063  159.9990 H   0  0  0  0  0  0  0  0  0  0  0  0  # atno 6907 bound_to 6896
  152.4411  133.7445  159.6670 H   0  0  0  0  0  0  0  0  0  0  0  0  # atno 6908 bound_to 6896
  150.8316  133.8012  159.3120 H   0  0  0  0  0  0  0  0  0  0  0  0  # atno 6909 bound_to 6896
  145.3777  140.9513  143.2411 H   0  0  0  0  0  0  0  0  0  0  0  0  # atno 7974 bound_to 7965
  154.8484  140.2925  155.5614 H   0  0  0  0  0  0  0  0  0  0  0  0  # atno 8008 bound_to 7997
  156.3015  140.2500  156.3370 H   0  0  0  0  0  0  0  0  0  0  0  0  # atno 8009 bound_to 7997
  154.9048  140.0390  157.1903 H   0  0  0  0  0  0  0  0  0  0  0  0  # atno 8010 bound_to 7997
  140.4797  144.0635  150.6261 H   0  0  0  0  0  0  0  0  0  0  0  0  # atno 10167 bound_to 10162
  156.6803  130.5035  149.5973 H   0  0  0  0  0  0  0  0  0  0  0  0  # atno 10718 bound_to 10713
  154.7531  135.3097  154.8520 H   0  0  0  0  0  0  0  0  0  0  0  0  # atno 10763 bound_to 10752
  153.9302  135.6786  153.4750 H   0  0  0  0  0  0  0  0  0  0  0  0  # atno 10764 bound_to 10752
  153.1127  135.4858  154.8992 H   0  0  0  0  0  0  0  0  0  0  0  0  # atno 10765 bound_to 10752
  140.6867  134.4086  157.5222 H   0  0  0  0  0  0  0  0  0  0  0  0  # atno 11005 bound_to 11000
  144.8530  139.5292  143.6847 LP  0  0  0  0  0  0  0  0  0  0  0  0  # atno 17320 bound_to 7965
  146.2857  139.6996  142.9197 LP  0  0  0  0  0  0  0  0  0  0  0  0  # atno 17321 bound_to 7965
  140.3873  143.2771  152.0101 LP  0  0  0  0  0  0  0  0  0  0  0  0  # atno 17342 bound_to 10162
  139.4831  144.6106  151.7441 LP  0  0  0  0  0  0  0  0  0  0  0  0  # atno 17343 bound_to 10162
  156.1873  130.6537  151.1020 LP  0  0  0  0  0  0  0  0  0  0  0  0  # atno 17370 bound_to 10713
  157.7046  131.0762  150.6709 LP  0  0  0  0  0  0  0  0  0  0  0  0  # atno 17371 bound_to 10713
  139.8935  134.8728  156.2219 LP  0  0  0  0  0  0  0  0  0  0  0  0  # atno 17394 bound_to 11000
  141.0274  133.7007  156.1371 LP  0  0  0  0  0  0  0  0  0  0  0  0  # atno 17395 bound_to 11000

$$$$
