AV-unprocessed.smi:2330|AV-procd|sdf|9312|dock5
  -GOLD-   2272012533D 1   1.00000     0.00000
 Structure written by MMmdl.
 42 43  0  0  0  0  0  0  0  0  1 V2000
  145.9406  132.4701  149.9218 C   0  0  0  0  0  0  0  0  0  0  0  0
  145.2772  133.2268  151.0813 C   0  0  2  0  0  0  0  0  0  0  0  0
  145.2929  134.7485  150.8409 C   0  0  0  0  0  0  0  0  0  0  0  0
  144.6395  135.5168  152.0043 C   0  0  0  0  0  0  0  0  0  0  0  0
  145.2829  135.1757  153.3620 C   0  0  2  0  0  0  0  0  0  0  0  0
  146.6337  135.7305  153.4323 N   0  0  0  0  0  0  0  0  0  0  0  0
  147.1064  136.5046  154.4186 C   0  0  0  0  0  0  0  0  0  0  0  0
  146.4446  136.8638  155.3926 O   0  0  0  0  0  0  0  0  0  0  0  0
  148.3929  136.8250  154.2212 N   0  0  0  0  0  0  0  0  0  0  0  0
  149.2129  137.6320  155.1201 C   0  0  0  0  0  0  0  0  0  0  0  0
  149.8632  138.8344  154.4030 C   0  0  2  0  0  0  0  0  0  0  0  0
  151.1864  139.3140  155.0250 C   0  0  0  0  0  0  0  0  0  0  0  0
  148.8945  139.9644  154.2418 C   0  0  0  0  0  0  0  0  0  0  0  0
  147.6892  139.8367  153.6774 N   0  0  0  0  0  0  0  0  0  0  0  0
  146.9801  141.0398  153.6486 C   0  0  0  0  0  0  0  0  0  0  0  0
  147.6644  142.0914  154.2024 C   0  0  0  0  0  0  0  0  0  0  0  0
  149.2337  141.6060  154.7824 S   0  0  0  0  0  0  0  0  0  0  0  0
  145.2870  133.6495  153.5939 C   0  0  0  0  0  0  0  0  0  0  0  0
  145.9417  132.8863  152.4289 C   0  0  0  0  0  0  0  0  0  0  0  0
  146.9897  132.7479  149.8160 H   0  0  0  0  0  0  0  0  0  0  0  0
  145.4419  132.6852  148.9764 H   0  0  0  0  0  0  0  0  0  0  0  0
  145.8960  131.3921  150.0794 H   0  0  0  0  0  0  0  0  0  0  0  0
  144.2356  132.9053  151.1301 H   0  0  0  0  0  0  0  0  0  0  0  0
  146.3202  135.0901  150.7069 H   0  0  0  0  0  0  0  0  0  0  0  0
  144.7704  134.9835  149.9128 H   0  0  0  0  0  0  0  0  0  0  0  0
  144.6934  136.5905  151.8200 H   0  0  0  0  0  0  0  0  0  0  0  0
  143.5776  135.2700  152.0404 H   0  0  0  0  0  0  0  0  0  0  0  0
  144.6841  135.6459  154.1440 H   0  0  0  0  0  0  0  0  0  0  0  0
  147.2595  135.4904  152.6773 H   0  0  0  0  0  0  0  0  0  0  0  0
  148.8444  136.4762  153.3883 H   0  0  0  0  0  0  0  0  0  0  0  0
  148.5578  137.9933  155.9136 H   0  0  0  0  0  0  0  0  0  0  0  0
  149.9738  137.0223  155.6108 H   0  0  0  0  0  0  0  0  0  0  0  0
  150.1047  138.5005  153.3929 H   0  0  0  0  0  0  0  0  0  0  0  0
  151.6066  140.1440  154.4558 H   0  0  0  0  0  0  0  0  0  0  0  0
  151.9354  138.5226  155.0404 H   0  0  0  0  0  0  0  0  0  0  0  0
  151.0401  139.6538  156.0507 H   0  0  0  0  0  0  0  0  0  0  0  0
  145.9916  141.0576  153.2138 H   0  0  0  0  0  0  0  0  0  0  0  0
  147.3423  143.1172  154.3039 H   0  0  0  0  0  0  0  0  0  0  0  0
  145.7909  133.4050  154.5297 H   0  0  0  0  0  0  0  0  0  0  0  0
  144.2587  133.3050  153.7092 H   0  0  0  0  0  0  0  0  0  0  0  0
  145.8745  131.8140  152.6155 H   0  0  0  0  0  0  0  0  0  0  0  0
  147.0057  133.1232  152.3877 H   0  0  0  0  0  0  0  0  0  0  0  0
  1  2  1  0  0  0  0
  1 20  1  0  0  0  0
  1 21  1  0  0  0  0
  1 22  1  0  0  0  0
  2 19  1  0  0  0  0
  2  3  1  0  0  0  0
  2 23  1  0  0  0  0
  3  4  1  0  0  0  0
  3 24  1  0  0  0  0
  3 25  1  0  0  0  0
  4  5  1  0  0  0  0
  4 26  1  0  0  0  0
  4 27  1  0  0  0  0
  5  6  1  0  0  0  0
  5 18  1  0  0  0  0
  5 28  1  0  0  0  0
  6  7  1  0  0  0  0
  6 29  1  0  0  0  0
  7  8  2  0  0  0  0
  7  9  1  0  0  0  0
  9 10  1  0  0  0  0
  9 30  1  0  0  0  0
 10 11  1  0  0  0  0
 10 31  1  0  0  0  0
 10 32  1  0  0  0  0
 11 12  1  0  0  0  0
 11 13  1  0  0  0  0
 11 33  1  0  0  0  0
 12 34  1  0  0  0  0
 12 35  1  0  0  0  0
 12 36  1  0  0  0  0
 13 17  1  0  0  0  0
 13 14  2  0  0  0  0
 14 15  1  0  0  0  0
 15 16  2  0  0  0  0
 15 37  1  0  0  0  0
 16 17  1  0  0  0  0
 16 38  1  0  0  0  0
 18 19  1  0  0  0  0
 18 39  1  0  0  0  0
 18 40  1  0  0  0  0
 19 41  1  0  0  0  0
 19 42  1  0  0  0  0
M  END
> <s_m_source_file>
AV-unprocessed.smi

> <i_m_source_file_index>
2330

> <i_lp_mmshare_version>
43012

> <i_f3d_flags>
0

> <s_epik_input>
W0NIM11bQ0BASF0xW0NIMl1bQ0gyXVtDQEhdKFtDSDJdW0NIMl0xKVtOSF1DKD1PKVtOSF1bQ0gyXVtDQEhdKFtDSDNdKWMybltjSF1bY0hdczI=

> <s_epik_cmdline>
J2VwaWtfcHl0aG9uJywgJy1waCcsICc3LjAnLCAnLXRuJywgJzgnLCAnLW1hJywgJzIwMCcsICctbWV0YWxfYmluZGluZycsICctaW1hZScsICc8aW5maWxlLm1hZT4nLCAnLW9tYWUnLCAnPG91dGZpbGUubWFlPic=

> <r_lp_tautomer_probability>
1

> <r_epik_Ionization_Penalty>
0.000331107

> <r_epik_Ionization_Penalty_Charging>
0

> <r_epik_Ionization_Penalty_Neutral>
0.000331107

> <r_epik_State_Penalty>
-0

> <r_epik_Charging_Adjusted_Penalty>
0

> <i_epik_Tot_Q>
0

> <i_epik_Tot_abs_Q>
0

> <r_epik_Metal_State_Penalty>
-0

> <b_epik_Metal_Only>
0

> <s_lp_Force_Field>
OPLS_2005

> <r_lp_Energy>
-1.48662

> <b_lp_Chiralities_Consistent>
1

> <s_lp_Variant>
AV-unprocessed.smi:2330-3

> <Gold.Version>
5.8.1

> <Gold.Id.Protein>
6NUR|6NUR_protein|mol2

> <Gold.PLP.Fitness>
41.0521

> <Gold.PLP.PLP>
-31.1416

> <Gold.PLP.part.hbond>
-1.8168

> <Gold.PLP.part.metal>
0.0000

> <Gold.PLP.part.buried>
-0.6804

> <Gold.PLP.part.nonpolar>
-27.9357

> <Gold.PLP.part.repulsive>
0.4233

> <Gold.PLP.ligand.clash>
0.0000

> <Gold.PLP.ligand.torsion>
0.4065

> <Gold.PLP.Chemscore.Hbond>
1.7593

> <Gold.PLP.Chemscore.CHOScore>
1.7767

> <Gold.PLP.Chemscore.Metal>
0.0000

> <Gold.Chemscore.Hbonds>
donor molecule, donor type, donor heavy atom, donor atom, acceptor molecule, acceptor atom, score
      L1  H     6    29       P1  7948  0.77
      L1  H     9    30       P1  7948  1.00
      L1  C    15    37       P1 10175  1.00
      L1  C    16    38       P1  8028  0.73

> <Gold.PLP.Chemscore.Internal.Correction>
0.1158

> <Gold.Rescore>
     Score         DG    S(hbond)    S(metal)    S(lipo)     H(rot)  DE(clash)    DE(int)     intcor
     16.89     -17.38       1.74        0.00      83.78       1.45       0.09       0.40       ----

> <Gold.Chemscore.Fitness>
16.8851

> <Gold.Chemscore.DG>
-17.3771

> <Gold.Chemscore.ZeroCoef>
-5.4800

> <Gold.Chemscore.Hbond>
1.7414

> <Gold.Chemscore.Metal>
0.0000

> <Gold.Chemscore.Lipo>
83.7783

> <Gold.Chemscore.Internal_Hbond>
0.0000

> <Gold.Chemscore.DEClash>
0.0925

> <Gold.Chemscore.DEInternal>
0.3995

> <Gold.Chemscore.Rot>
1.4536

> <Gold.Chemscore.Internal.Correction>
   9.000000E+99

> <Gold.Chemscore.Hbonds>
donor molecule, donor type, donor heavy atom, donor atom, acceptor molecule, acceptor atom, score
      L1  H     6    29       P1  7948  0.75
      L1  H     9    30       P1  7948  0.93

> <Gold.Chemscore.Hbond.Weighted>
-5.8162

> <Gold.Chemscore.Metal.Weighted>
-0.0000

> <Gold.Chemscore.Lipo.Weighted>
-9.8021

> <Gold.Chemscore.Internal_Hbond.Weighted>
0.0000

> <Gold.Chemscore.DEClash.Weighted>
0.0925

> <Gold.Chemscore.DEInternal.Weighted>
0.3995

> <Gold.Chemscore.Rot.Weighted>
3.7212

> <Gold.Chemscore.Internal.Correction.Weighted>
   9.000000E+99

> <Gold.Protein.RotatedTorsions>
[ 6907 6896 6895 6894 ] final  108.87 input  -60.11 | X-H torsion
[ 7974 7965 7964 7962 ] final  -42.81 input  175.53 | X-H torsion
[ 8008 7997 7996 7995 ] final  -54.67 input   59.86 | X-H torsion
[ 10167 10162 10161 10158 ] final  -60.59 input  -65.29 | X-H torsion
[ 10718 10713 10712 10709 ] final -135.04 input   66.30 | X-H torsion
[ 10763 10752 10751 10750 ] final -170.09 input  -60.55 | X-H torsion
[ 11005 11000 10999 10996 ] final  -99.33 input  -57.11 | X-H torsion

> <Gold.Protein.ActiveResidues>
 VAL166  LYS551  ARG553  GLY616  TRP617  ASP618  TYR619  PRO620  LYS621  CYS622 
 ASP623  PHE694  ASN695  SER759  ASP760  ASP761  ALA762  ILE779  LEU786  VAL792 
 PHE793  MET794  SER795  GLU796  ALA797  LYS798  CYS799  TRP800  GLU811  SER814 

> <Gold.Protein.RotatedAtoms>
  152.5093  133.9026  159.7448 H   0  0  0  0  0  0  0  0  0  0  0  0  # atno 6907 bound_to 6896
  150.9438  133.6618  159.2792 H   0  0  0  0  0  0  0  0  0  0  0  0  # atno 6908 bound_to 6896
  151.3920  135.0962  159.9582 H   0  0  0  0  0  0  0  0  0  0  0  0  # atno 6909 bound_to 6896
  146.0080  140.6997  142.9238 H   0  0  0  0  0  0  0  0  0  0  0  0  # atno 7974 bound_to 7965
  154.4170  140.1171  156.5353 H   0  0  0  0  0  0  0  0  0  0  0  0  # atno 8008 bound_to 7997
  155.6564  140.3496  155.4747 H   0  0  0  0  0  0  0  0  0  0  0  0  # atno 8009 bound_to 7997
  155.9750  140.1149  157.0768 H   0  0  0  0  0  0  0  0  0  0  0  0  # atno 8010 bound_to 7997
  140.6061  143.2374  151.5818 H   0  0  0  0  0  0  0  0  0  0  0  0  # atno 10167 bound_to 10162
  156.2618  130.7214  151.1151 H   0  0  0  0  0  0  0  0  0  0  0  0  # atno 10718 bound_to 10713
  154.6453  135.2904  155.0053 H   0  0  0  0  0  0  0  0  0  0  0  0  # atno 10763 bound_to 10752
  154.1165  135.6554  153.4899 H   0  0  0  0  0  0  0  0  0  0  0  0  # atno 10764 bound_to 10752
  153.0348  135.5277  154.7338 H   0  0  0  0  0  0  0  0  0  0  0  0  # atno 10765 bound_to 10752
  141.1312  133.8313  157.0957 H   0  0  0  0  0  0  0  0  0  0  0  0  # atno 11005 bound_to 11000
  144.6942  140.3349  143.7209 LP  0  0  0  0  0  0  0  0  0  0  0  0  # atno 17320 bound_to 7965
  145.7386  139.1757  143.2389 LP  0  0  0  0  0  0  0  0  0  0  0  0  # atno 17321 bound_to 7965
  139.5326  144.2872  152.1181 LP  0  0  0  0  0  0  0  0  0  0  0  0  # atno 17342 bound_to 10162
  140.2062  144.4608  150.6407 LP  0  0  0  0  0  0  0  0  0  0  0  0  # atno 17343 bound_to 10162
  157.7253  131.0654  150.5957 LP  0  0  0  0  0  0  0  0  0  0  0  0  # atno 17370 bound_to 10713
  156.6046  130.4363  149.5883 LP  0  0  0  0  0  0  0  0  0  0  0  0  # atno 17371 bound_to 10713
  140.0364  134.9876  157.0880 LP  0  0  0  0  0  0  0  0  0  0  0  0  # atno 17394 bound_to 11000
  140.4203  134.1888  155.7164 LP  0  0  0  0  0  0  0  0  0  0  0  0  # atno 17395 bound_to 11000

$$$$
