AV-unprocessed.smi:3345|AV-procd|sdf|12906|dock8
  -GOLD-   2272019323D 1   1.00000     0.00000
 Structure written by MMmdl.
 41 42  0  0  0  0  0  0  0  0  2 V2000
  144.3779  137.7786  154.0205 C   0  0  0  0  0  0  0  0  0  0  0  0
  145.7221  137.4603  153.3525 C   0  0  1  0  0  0  0  0  0  0  0  0
  145.5290  136.7640  151.9858 C   0  0  0  0  0  0  0  0  0  0  0  0
  146.1939  135.4375  151.9069 N   0  3  0  0  0  0  0  0  0  0  0  0
  146.2134  134.7040  153.1951 C   0  0  0  0  0  0  0  0  0  0  0  0
  146.9970  133.3906  153.0407 C   0  0  0  0  0  0  0  0  0  0  0  0
  146.4006  132.6025  152.0176 O   0  0  0  0  0  0  0  0  0  0  0  0
  146.4298  133.2556  150.7542 C   0  0  0  0  0  0  0  0  0  0  0  0
  145.6473  134.5779  150.8310 C   0  0  0  0  0  0  0  0  0  0  0  0
  146.4922  138.6942  153.1960 N   0  0  0  0  0  0  0  0  0  0  0  0
  146.8634  139.5220  154.1865 C   0  0  0  0  0  0  0  0  0  0  0  0
  146.5112  139.3763  155.3572 O   0  0  0  0  0  0  0  0  0  0  0  0
  147.8210  140.6557  153.7945 C   0  0  1  0  0  0  0  0  0  0  0  0
  147.2332  142.0538  154.0725 C   0  0  0  0  0  0  0  0  0  0  0  0
  149.1061  140.4532  154.4533 N   0  0  0  0  0  0  0  0  0  0  0  0
  149.8187  141.2849  155.2165 C   0  0  0  0  0  0  0  0  0  0  0  0
  150.9872  140.7931  155.6035 N   0  0  0  0  0  0  0  0  0  0  0  0
  150.9290  139.5669  155.0046 C   0  0  0  0  0  0  0  0  0  0  0  0
  149.8369  139.3231  154.2811 N   0  0  0  0  0  0  0  0  0  0  0  0
  143.7908  136.8719  154.1696 H   0  0  0  0  0  0  0  0  0  0  0  0
  143.7832  138.4641  153.4156 H   0  0  0  0  0  0  0  0  0  0  0  0
  144.5246  138.2392  154.9981 H   0  0  0  0  0  0  0  0  0  0  0  0
  146.2506  136.7781  154.0196 H   0  0  0  0  0  0  0  0  0  0  0  0
  144.4690  136.6642  151.7478 H   0  0  0  0  0  0  0  0  0  0  0  0
  145.9538  137.4108  151.2164 H   0  0  0  0  0  0  0  0  0  0  0  0
  146.6730  135.3108  153.9741 H   0  0  0  0  0  0  0  0  0  0  0  0
  145.1918  134.4949  153.5159 H   0  0  0  0  0  0  0  0  0  0  0  0
  148.0445  133.5872  152.8051 H   0  0  0  0  0  0  0  0  0  0  0  0
  146.9792  132.8295  153.9751 H   0  0  0  0  0  0  0  0  0  0  0  0
  147.4613  133.4320  150.4496 H   0  0  0  0  0  0  0  0  0  0  0  0
  145.9860  132.5990  150.0058 H   0  0  0  0  0  0  0  0  0  0  0  0
  144.5912  134.3792  151.0209 H   0  0  0  0  0  0  0  0  0  0  0  0
  145.7116  135.0951  149.8730 H   0  0  0  0  0  0  0  0  0  0  0  0
  146.8155  138.9071  152.2632 H   0  0  0  0  0  0  0  0  0  0  0  0
  147.9954  140.5855  152.7194 H   0  0  0  0  0  0  0  0  0  0  0  0
  146.2968  142.1997  153.5330 H   0  0  0  0  0  0  0  0  0  0  0  0
  147.9210  142.8349  153.7482 H   0  0  0  0  0  0  0  0  0  0  0  0
  147.0303  142.2133  155.1325 H   0  0  0  0  0  0  0  0  0  0  0  0
  149.4799  142.2743  155.4870 H   0  0  0  0  0  0  0  0  0  0  0  0
  151.7252  138.8415  155.0854 H   0  0  0  0  0  0  0  0  0  0  0  0
  147.1567  135.6175  151.6602 H   0  0  0  0  0  0  0  0  0  0  0  0
  1  2  1  0  0  0  0
  1 20  1  0  0  0  0
  1 21  1  0  0  0  0
  1 22  1  0  0  0  0
  2  3  1  0  0  0  0
  2 10  1  0  0  0  0
  2 23  1  0  0  0  0
  3  4  1  0  0  0  0
  3 24  1  0  0  0  0
  3 25  1  0  0  0  0
  4  9  1  0  0  0  0
  4  5  1  0  0  0  0
  4 41  1  0  0  0  0
  5  6  1  0  0  0  0
  5 26  1  0  0  0  0
  5 27  1  0  0  0  0
  6  7  1  0  0  0  0
  6 28  1  0  0  0  0
  6 29  1  0  0  0  0
  7  8  1  0  0  0  0
  8  9  1  0  0  0  0
  8 30  1  0  0  0  0
  8 31  1  0  0  0  0
  9 32  1  0  0  0  0
  9 33  1  0  0  0  0
 10 11  1  0  0  0  0
 10 34  1  0  0  0  0
 11 12  2  0  0  0  0
 11 13  1  0  0  0  0
 13 14  1  0  0  0  0
 13 15  1  0  0  0  0
 13 35  1  0  0  0  0
 14 36  1  0  0  0  0
 14 37  1  0  0  0  0
 14 38  1  0  0  0  0
 15 19  1  0  0  0  0
 15 16  1  0  0  0  0
 16 17  2  0  0  0  0
 16 39  1  0  0  0  0
 17 18  1  0  0  0  0
 18 19  2  0  0  0  0
 18 40  1  0  0  0  0
M  CHG  1   4   1
M  END
> <s_m_source_file>
AV-unprocessed.smi

> <i_m_source_file_index>
3345

> <i_lp_mmshare_version>
43012

> <i_f3d_flags>
0

> <s_epik_input>
W0NIMl0xW0NIMl1PW0NIMl1bQ0gyXU4xW0NIMl1bQ0BASF0oW0NIM10pW05IXUMoPU8pW0NASF0oW0NIM10pbjJbY0hdbltjSF1uMg==

> <s_epik_cmdline>
J2VwaWtfcHl0aG9uJywgJy1waCcsICc3LjAnLCAnLXRuJywgJzgnLCAnLW1hJywgJzIwMCcsICctbWV0YWxfYmluZGluZycsICctaW1hZScsICc8aW5maWxlLm1hZT4nLCAnLW9tYWUnLCAnPG91dGZpbGUubWFlPic=

> <r_lp_tautomer_probability>
1

> <r_epik_Ionization_Penalty>
0.71326

> <r_epik_Ionization_Penalty_Charging>
0.713252

> <r_epik_Ionization_Penalty_Neutral>
8.27671e-06

> <r_epik_State_Penalty>
0.737017

> <r_epik_Charging_Adjusted_Penalty>
1.45027

> <i_epik_Tot_Q>
1

> <i_epik_Tot_abs_Q>
1

> <r_epik_Metal_State_Penalty>
0.73702

> <b_epik_Metal_Only>
0

> <s_lp_Force_Field>
OPLS_2005

> <r_lp_Energy>
25.9196

> <b_lp_Chiralities_Consistent>
1

> <s_lp_Variant>
AV-unprocessed.smi:3345-8

> <Gold.Version>
5.8.1

> <Gold.Id.Protein>
6NUR|6NUR_protein|mol2

> <Gold.PLP.Fitness>
36.4835

> <Gold.PLP.PLP>
-29.4399

> <Gold.PLP.part.hbond>
-2.0000

> <Gold.PLP.part.metal>
0.0000

> <Gold.PLP.part.buried>
-2.4749

> <Gold.PLP.part.nonpolar>
-24.9754

> <Gold.PLP.part.repulsive>
0.4294

> <Gold.PLP.ligand.clash>
0.0000

> <Gold.PLP.ligand.torsion>
1.0568

> <Gold.PLP.Chemscore.Hbond>
2.0000

> <Gold.PLP.Chemscore.CHOScore>
1.0000

> <Gold.PLP.Chemscore.Metal>
0.0000

> <Gold.Chemscore.Hbonds>
donor molecule, donor type, donor heavy atom, donor atom, acceptor molecule, acceptor atom, score
      L1  H     4    41       P1  7948  2.00
      L1  C    16    39       P1  8028  1.00

> <Gold.PLP.Chemscore.Internal.Correction>
0.1572

> <Gold.Rescore>
     Score         DG    S(hbond)    S(metal)    S(lipo)     H(rot)  DE(clash)    DE(int)     intcor
      5.79      -7.75       1.00        0.00      48.08       2.61       0.08       1.87       ----

> <Gold.Chemscore.Fitness>
5.7880

> <Gold.Chemscore.DG>
-7.7467

> <Gold.Chemscore.ZeroCoef>
-5.4800

> <Gold.Chemscore.Hbond>
0.9978

> <Gold.Chemscore.Metal>
0.0000

> <Gold.Chemscore.Lipo>
48.0781

> <Gold.Chemscore.Internal_Hbond>
0.0000

> <Gold.Chemscore.DEClash>
0.0841

> <Gold.Chemscore.DEInternal>
1.8745

> <Gold.Chemscore.Rot>
2.6138

> <Gold.Chemscore.Internal.Correction>
   9.000000E+99

> <Gold.Chemscore.Hbonds>
donor molecule, donor type, donor heavy atom, donor atom, acceptor molecule, acceptor atom, score
      L1  H     4    41       P1  7948  0.99

> <Gold.Chemscore.Hbond.Weighted>
-3.3328

> <Gold.Chemscore.Metal.Weighted>
-0.0000

> <Gold.Chemscore.Lipo.Weighted>
-5.6251

> <Gold.Chemscore.Internal_Hbond.Weighted>
0.0000

> <Gold.Chemscore.DEClash.Weighted>
0.0841

> <Gold.Chemscore.DEInternal.Weighted>
1.8745

> <Gold.Chemscore.Rot.Weighted>
6.6912

> <Gold.Chemscore.Internal.Correction.Weighted>
   9.000000E+99

> <Gold.Protein.RotatedTorsions>
[ 6907 6896 6895 6894 ] final  166.23 input  -60.11 | X-H torsion
[ 7974 7965 7964 7962 ] final -129.15 input  175.53 | X-H torsion
[ 8008 7997 7996 7995 ] final  -15.79 input   59.86 | X-H torsion
[ 10167 10162 10161 10158 ] final   90.98 input  -65.29 | X-H torsion
[ 10718 10713 10712 10709 ] final -110.99 input   66.30 | X-H torsion
[ 10763 10752 10751 10750 ] final  176.81 input  -60.55 | X-H torsion
[ 11005 11000 10999 10996 ] final  170.38 input  -57.11 | X-H torsion

> <Gold.Protein.ActiveResidues>
 VAL166  LYS551  ARG553  GLY616  TRP617  ASP618  TYR619  PRO620  LYS621  CYS622 
 ASP623  PHE694  ASN695  SER759  ASP760  ASP761  ALA762  ILE779  LEU786  VAL792 
 PHE793  MET794  SER795  GLU796  ALA797  LYS798  CYS799  TRP800  GLU811  SER814 

> <Gold.Protein.RotatedAtoms>
  151.8821  133.3497  159.3769 H   0  0  0  0  0  0  0  0  0  0  0  0  # atno 6907 bound_to 6896
  150.7125  134.5008  159.5570 H   0  0  0  0  0  0  0  0  0  0  0  0  # atno 6908 bound_to 6896
  152.2562  134.8082  160.0489 H   0  0  0  0  0  0  0  0  0  0  0  0  # atno 6909 bound_to 6896
  144.9600  140.7436  143.4735 H   0  0  0  0  0  0  0  0  0  0  0  0  # atno 7974 bound_to 7965
  154.5102  140.2187  155.9170 H   0  0  0  0  0  0  0  0  0  0  0  0  # atno 8008 bound_to 7997
  156.1543  140.3155  155.8667 H   0  0  0  0  0  0  0  0  0  0  0  0  # atno 8009 bound_to 7997
  155.3877  140.0476  157.3032 H   0  0  0  0  0  0  0  0  0  0  0  0  # atno 8010 bound_to 7997
  139.8420  144.6636  150.9272 H   0  0  0  0  0  0  0  0  0  0  0  0  # atno 10167 bound_to 10162
  156.0622  130.5844  150.8312 H   0  0  0  0  0  0  0  0  0  0  0  0  # atno 10718 bound_to 10713
  154.4860  135.2777  155.1533 H   0  0  0  0  0  0  0  0  0  0  0  0  # atno 10763 bound_to 10752
  154.3224  135.6207  153.5517 H   0  0  0  0  0  0  0  0  0  0  0  0  # atno 10764 bound_to 10752
  152.9881  135.5746  154.5272 H   0  0  0  0  0  0  0  0  0  0  0  0  # atno 10765 bound_to 10752
  140.3077  134.7543  157.3967 H   0  0  0  0  0  0  0  0  0  0  0  0  # atno 11005 bound_to 11000
  145.2714  139.1953  143.4839 LP  0  0  0  0  0  0  0  0  0  0  0  0  # atno 17320 bound_to 7965
  146.3350  140.2661  142.8604 LP  0  0  0  0  0  0  0  0  0  0  0  0  # atno 17321 bound_to 7965
  140.7797  143.3904  151.1319 LP  0  0  0  0  0  0  0  0  0  0  0  0  # atno 17342 bound_to 10162
  139.7550  143.8721  152.3086 LP  0  0  0  0  0  0  0  0  0  0  0  0  # atno 17343 bound_to 10162
  157.5638  131.0946  150.9520 LP  0  0  0  0  0  0  0  0  0  0  0  0  # atno 17370 bound_to 10713
  156.9751  130.5506  149.5293 LP  0  0  0  0  0  0  0  0  0  0  0  0  # atno 17371 bound_to 10713
  140.1052  134.5419  155.8316 LP  0  0  0  0  0  0  0  0  0  0  0  0  # atno 17394 bound_to 11000
  141.2115  133.6707  156.6586 LP  0  0  0  0  0  0  0  0  0  0  0  0  # atno 17395 bound_to 11000

$$$$
