#       Name:                AV-unprocessed.smi:415
#       Creating user name   scv26
#       Creation time:       Thu Mar 26 22:47:19 2020


#       File generated by GOLD software.
#

@<TRIPOS>MOLECULE
AV-unprocessed.smi:415
    61    62     1
SMALL
NO_CHARGES


@<TRIPOS>ATOM
      1 ****        -1.9820  -3.3395   5.2642 C.3            1 S1                 0.0000
      2 ****        -1.6256  -2.8143   3.9980 O.3            1 S1                 0.0000
      3 ****        -2.7410  -2.6659   3.1354 C.3            1 S1                 0.0000
      4 ****        -2.2898  -2.0825   1.7861 C.3            1 S1                 0.0000
      5 ****        -1.8958  -0.6886   1.8722 N.am           1 S1                 0.0000
      6 ****        -2.8027   0.3625   1.7716 C.2            1 S1                 0.0000
      7 ****        -4.1487   0.0894   1.6058 N.pl3          1 S1                 0.0000
      8 ****        -2.3998   1.6505   1.8433 C.2            1 S1                 0.0000
      9 ****        -1.0016   2.0099   2.0321 C.2            1 S1                 0.0000
     10 ****        -0.6101   3.1766   2.0652 O.2            1 S1                 0.0000
     11 ****        -0.1021   0.9273   2.1638 N.am           1 S1                 0.0000
     12 ****         1.3409   1.2169   2.3413 C.3            1 S1                 0.0000
     13 ****         2.1573   1.2440   1.0364 C.2            1 S1                 0.0000
     14 ****         3.3768   1.3958   1.0946 O.2            1 S1                 0.0000
     15 ****         1.4967   1.0870  -0.1230 N.am           1 S1                 0.0000
     16 ****         2.0950   1.0114  -1.4524 C.3            1 S1                 0.0000
     17 ****         2.3516   2.4346  -1.9839 C.3            1 S1                 0.0000
     18 ****         2.9390   2.4004  -3.3977 C.3            1 S1                 0.0000
     19 ****         2.0158   1.6299  -4.3476 C.3            1 S1                 0.0000
     20 ****         1.7506   0.1934  -3.8535 C.3            1 S1                 0.0000
     21 ****         0.8433  -0.5361  -4.8613 C.3            1 S1                 0.0000
     22 ****         1.1808   0.1951  -2.4063 C.3            1 S1                 0.0000
     23 ****         0.9530  -1.2360  -1.8693 C.3            1 S1                 0.0000
     24 ****        -0.5203  -0.4218   2.0941 C.2            1 S1                 0.0000
     25 ****         0.3040  -1.3325   2.2107 O.2            1 S1                 0.0000
     26 ****        -1.0911  -3.4350   5.8847 H              1 S1                 0.0000
     27 ****        -2.4334  -4.3279   5.1689 H              1 S1                 0.0000
     28 ****        -2.6831  -2.6820   5.7800 H              1 S1                 0.0000
     29 ****        -3.2001  -3.6414   2.9707 H              1 S1                 0.0000
     30 ****        -3.4965  -2.0258   3.5935 H              1 S1                 0.0000
     31 ****        -1.4799  -2.6566   1.3334 H              1 S1                 0.0000
     32 ****        -3.0991  -2.1237   1.0575 H              1 S1                 0.0000
     33 ****        -4.4985  -0.8568   1.5548 H              1 S1                 0.0000
     34 ****        -4.8336   0.8248   1.5069 H              1 S1                 0.0000
     35 ****        -3.1284   2.4442   1.7568 H              1 S1                 0.0000
     36 ****         1.4940   2.1678   2.8532 H              1 S1                 0.0000
     37 ****         1.7971   0.4870   3.0120 H              1 S1                 0.0000
     38 ****         0.4946   0.9740  -0.0751 H              1 S1                 0.0000
     39 ****         3.0522   0.4915  -1.3766 H              1 S1                 0.0000
     40 ****         1.4201   3.0026  -1.9900 H              1 S1                 0.0000
     41 ****         3.0341   2.9683  -1.3217 H              1 S1                 0.0000
     42 ****         3.0864   3.4166  -3.7641 H              1 S1                 0.0000
     43 ****         3.9233   1.9313  -3.3772 H              1 S1                 0.0000
     44 ****         1.0713   2.1661  -4.4498 H              1 S1                 0.0000
     45 ****         2.4642   1.6058  -5.3415 H              1 S1                 0.0000
     46 ****         2.7079  -0.3301  -3.8380 H              1 S1                 0.0000
     47 ****        -0.1642  -0.1192  -4.8625 H              1 S1                 0.0000
     48 ****         0.7675  -1.6011  -4.6453 H              1 S1                 0.0000
     49 ****         1.2368  -0.4506  -5.8746 H              1 S1                 0.0000
     50 ****         0.2079   0.6892  -2.4352 H              1 S1                 0.0000
     51 ****         1.8830  -1.8050  -1.8565 H              1 S1                 0.0000
     52 ****         0.2322  -1.7858  -2.4728 H              1 S1                 0.0000
     53 ****         0.5551  -1.2339  -0.8546 H              1 S1                 0.0000
     54 ****        -0.9684  -3.4334   3.5680 LP             1 S1                 0.0000
     55 ****        -1.2020  -1.9183   4.1307 LP             1 S1                 0.0000
     56 ****        -1.2634   3.9263   1.9600 LP             1 S1                 0.0000
     57 ****         0.3612   3.3745   2.1973 LP             1 S1                 0.0000
     58 ****         3.8259   1.4997   1.9820 LP             1 S1                 0.0000
     59 ****         3.9189   1.4152   0.2545 LP             1 S1                 0.0000
     60 ****         0.0080  -2.2857   2.1492 LP             1 S1                 0.0000
     61 ****         1.2681  -1.1174   2.3666 LP             1 S1                 0.0000
@<TRIPOS>BOND
    1    1    2 1     
    2    1   26 1     
    3    1   27 1     
    4    1   28 1     
    5    2    3 1     
    6    3    4 1     
    7    3   29 1     
    8    3   30 1     
    9    4    5 1     
   10    4   31 1     
   11    4   32 1     
   12    5   24 am    
   13    5    6 1     
   14    6    7 1     
   15    6    8 2     
   16    7   33 1     
   17    7   34 1     
   18    8    9 1     
   19    8   35 1     
   20    9   10 2     
   21    9   11 am    
   22   11   12 1     
   23   11   24 am    
   24   12   13 1     
   25   12   36 1     
   26   12   37 1     
   27   13   14 2     
   28   13   15 am    
   29   15   16 1     
   30   15   38 1     
   31   16   22 1     
   32   16   17 1     
   33   16   39 1     
   34   17   18 1     
   35   17   40 1     
   36   17   41 1     
   37   18   19 1     
   38   18   42 1     
   39   18   43 1     
   40   19   20 1     
   41   19   44 1     
   42   19   45 1     
   43   20   21 1     
   44   20   22 1     
   45   20   46 1     
   46   21   47 1     
   47   21   48 1     
   48   21   49 1     
   49   22   23 1     
   50   22   50 1     
   51   23   51 1     
   52   23   52 1     
   53   23   53 1     
   54   24   25 2     
   55    2   54 1     
   56    2   55 1     
   57   10   56 1     
   58   10   57 1     
   59   14   58 1     
   60   14   59 1     
   61   25   60 1     
   62   25   61 1     
@<TRIPOS>SUBSTRUCTURE
      1 S1             1
@<TRIPOS>SET
LONE_PAIRS      STATIC     ATOMS    <user>   **** ""
8 54 55 56 57 58 59 60 61
DONOR_HYDROGENS      STATIC     ATOMS    <user>   **** ""
3 33 34 38
ATOM$BLUE        STATIC     ATOMS    COLORGROUP SYSTEM
8 54 55 56 57 58 59 60 61
ATOM$RED        STATIC     ATOMS    COLORGROUP SYSTEM
3 33 34 38
