AV-unprocessed.smi:1419|AV-procd|sdf|5775|dock1
  -GOLD-   22720 5423D 1   1.00000     0.00000
 Structure written by MMmdl.
 42 43  0  0  0  0  0  0  0  0  2 V2000
  148.7312  140.7547  157.3688 C   0  0  0  0  0  0  0  0  0  0  0  0
  150.0646  140.8554  156.6163 C   0  0  1  0  0  0  0  0  0  0  0  0
  149.8678  141.4422  155.2018 C   0  0  0  0  0  0  0  0  0  0  0  0
  149.0758  140.5696  154.3275 N   0  0  0  0  0  0  0  0  0  0  0  0
  147.8367  140.8273  153.7999 C   0  0  0  0  0  0  0  0  0  0  0  0
  147.4864  139.7222  153.0676 C   0  0  0  0  0  0  0  0  0  0  0  0
  148.5276  138.8394  153.1748 N   0  3  0  0  0  0  0  0  0  0  0  0
  149.4958  139.3587  153.9364 C   0  0  0  0  0  0  0  0  0  0  0  0
  150.9885  141.6786  157.3952 N   0  0  0  0  0  0  0  0  0  0  0  0
  151.7518  141.2558  158.4188 C   0  0  0  0  0  0  0  0  0  0  0  0
  151.6852  140.1065  158.8571 O   0  0  0  0  0  0  0  0  0  0  0  0
  152.5926  142.1928  158.9210 N   0  0  0  0  0  0  0  0  0  0  0  0
  153.5810  141.9946  159.9893 C   0  0  0  0  0  0  0  0  0  0  0  0
  153.0043  142.5993  161.2855 C   0  0  1  0  0  0  0  0  0  0  0  0
  153.9798  142.4883  162.4620 C   0  0  0  0  0  0  0  0  0  0  0  0
  152.7214  143.9821  161.0695 O   0  0  0  0  0  0  0  0  0  0  0  0
  151.8122  144.2301  159.9964 C   0  0  1  0  0  0  0  0  0  0  0  0
  151.6004  145.7437  159.8873 C   0  0  0  0  0  0  0  0  0  0  0  0
  152.3866  143.6252  158.6990 C   0  0  0  0  0  0  0  0  0  0  0  0
  148.0234  140.1238  156.8300 H   0  0  0  0  0  0  0  0  0  0  0  0
  148.2709  141.7350  157.4972 H   0  0  0  0  0  0  0  0  0  0  0  0
  148.8705  140.3191  158.3588 H   0  0  0  0  0  0  0  0  0  0  0  0
  150.4587  139.8416  156.5243 H   0  0  0  0  0  0  0  0  0  0  0  0
  149.3451  142.3980  155.2585 H   0  0  0  0  0  0  0  0  0  0  0  0
  150.8294  141.6363  154.7232 H   0  0  0  0  0  0  0  0  0  0  0  0
  147.3066  141.7500  153.9875 H   0  0  0  0  0  0  0  0  0  0  0  0
  146.5968  139.5033  152.4948 H   0  0  0  0  0  0  0  0  0  0  0  0
  150.4270  138.8864  154.1948 H   0  0  0  0  0  0  0  0  0  0  0  0
  151.0838  142.6426  157.1103 H   0  0  0  0  0  0  0  0  0  0  0  0
  153.8540  140.9514  160.1497 H   0  0  0  0  0  0  0  0  0  0  0  0
  154.5097  142.4996  159.7186 H   0  0  0  0  0  0  0  0  0  0  0  0
  152.0783  142.0858  161.5507 H   0  0  0  0  0  0  0  0  0  0  0  0
  154.2181  141.4464  162.6780 H   0  0  0  0  0  0  0  0  0  0  0  0
  153.5526  142.9255  163.3648 H   0  0  0  0  0  0  0  0  0  0  0  0
  154.9141  143.0088  162.2499 H   0  0  0  0  0  0  0  0  0  0  0  0
  150.8547  143.7603  160.2291 H   0  0  0  0  0  0  0  0  0  0  0  0
  150.8979  145.9852  159.0893 H   0  0  0  0  0  0  0  0  0  0  0  0
  152.5380  146.2591  159.6758 H   0  0  0  0  0  0  0  0  0  0  0  0
  151.1996  146.1490  160.8166 H   0  0  0  0  0  0  0  0  0  0  0  0
  153.3381  144.0962  158.4468 H   0  0  0  0  0  0  0  0  0  0  0  0
  151.7214  143.8278  157.8579 H   0  0  0  0  0  0  0  0  0  0  0  0
  148.5617  137.9249  152.7418 H   0  0  0  0  0  0  0  0  0  0  0  0
  1  2  1  0  0  0  0
  1 20  1  0  0  0  0
  1 21  1  0  0  0  0
  1 22  1  0  0  0  0
  2  3  1  0  0  0  0
  2  9  1  0  0  0  0
  2 23  1  0  0  0  0
  3  4  1  0  0  0  0
  3 24  1  0  0  0  0
  3 25  1  0  0  0  0
  4  8  1  0  0  0  0
  4  5  1  0  0  0  0
  5  6  2  0  0  0  0
  5 26  1  0  0  0  0
  6  7  1  0  0  0  0
  6 27  1  0  0  0  0
  7  8  2  0  0  0  0
  7 42  1  0  0  0  0
  8 28  1  0  0  0  0
  9 10  1  0  0  0  0
  9 29  1  0  0  0  0
 10 11  2  0  0  0  0
 10 12  1  0  0  0  0
 12 19  1  0  0  0  0
 12 13  1  0  0  0  0
 13 14  1  0  0  0  0
 13 30  1  0  0  0  0
 13 31  1  0  0  0  0
 14 15  1  0  0  0  0
 14 16  1  0  0  0  0
 14 32  1  0  0  0  0
 15 33  1  0  0  0  0
 15 34  1  0  0  0  0
 15 35  1  0  0  0  0
 16 17  1  0  0  0  0
 17 18  1  0  0  0  0
 17 19  1  0  0  0  0
 17 36  1  0  0  0  0
 18 37  1  0  0  0  0
 18 38  1  0  0  0  0
 18 39  1  0  0  0  0
 19 40  1  0  0  0  0
 19 41  1  0  0  0  0
M  CHG  1   7   1
M  END
> <s_m_source_file>
AV-unprocessed.smi

> <i_m_source_file_index>
1419

> <i_lp_mmshare_version>
43012

> <i_f3d_flags>
0

> <s_epik_input>
W2NIXTFuW2NIXVtjSF1uMVtDSDJdW0NAQEhdKFtDSDNdKVtOSF1DKD1PKU4yW0NIMl1bQ0BASF0oW0NIM10pT1tDQEBIXShbQ0gzXSlbQ0gyXTI=

> <s_epik_cmdline>
J2VwaWtfcHl0aG9uJywgJy1waCcsICc3LjAnLCAnLXRuJywgJzgnLCAnLW1hJywgJzIwMCcsICctbWV0YWxfYmluZGluZycsICctaW1hZScsICc8aW5maWxlLm1hZT4nLCAnLW9tYWUnLCAnPG91dGZpbGUubWFlPic=

> <r_lp_tautomer_probability>
1

> <r_epik_Ionization_Penalty>
0.253607

> <r_epik_Ionization_Penalty_Charging>
0

> <r_epik_Ionization_Penalty_Neutral>
0.253607

> <r_epik_State_Penalty>
0.245018

> <r_epik_Charging_Adjusted_Penalty>
0.245018

> <i_epik_Tot_Q>
1

> <i_epik_Tot_abs_Q>
1

> <r_epik_Metal_State_Penalty>
0.535379

> <b_epik_Metal_Only>
0

> <s_lp_Force_Field>
OPLS_2005

> <r_lp_Energy>
29.1854

> <b_lp_Chiralities_Consistent>
1

> <s_lp_Variant>
AV-unprocessed.smi:1419-2

> <Gold.Version>
5.8.1

> <Gold.Id.Protein>
6NUR|6NUR_protein|mol2

> <Gold.PLP.Fitness>
49.1694

> <Gold.PLP.PLP>
-44.8255

> <Gold.PLP.part.hbond>
-2.0000

> <Gold.PLP.part.metal>
0.0000

> <Gold.PLP.part.buried>
-1.5661

> <Gold.PLP.part.nonpolar>
-41.8957

> <Gold.PLP.part.repulsive>
0.2166

> <Gold.PLP.ligand.clash>
0.7872

> <Gold.PLP.ligand.torsion>
0.4767

> <Gold.PLP.Chemscore.Hbond>
2.0000

> <Gold.PLP.Chemscore.CHOScore>
0.0000

> <Gold.PLP.Chemscore.Metal>
0.0000

> <Gold.Chemscore.Hbonds>
donor molecule, donor type, donor heavy atom, donor atom, acceptor molecule, acceptor atom, score
      L1  H     7    42       P1  7948  2.00

> <Gold.PLP.Chemscore.Internal.Correction>
0.0844

> <Gold.Rescore>
     Score         DG    S(hbond)    S(metal)    S(lipo)     H(rot)  DE(clash)    DE(int)     intcor
     15.27     -15.80       0.99        0.00      95.53       1.63       0.08       0.45       ----

> <Gold.Chemscore.Fitness>
15.2750

> <Gold.Chemscore.DG>
-15.8031

> <Gold.Chemscore.ZeroCoef>
-5.4800

> <Gold.Chemscore.Hbond>
0.9918

> <Gold.Chemscore.Metal>
0.0000

> <Gold.Chemscore.Lipo>
95.5254

> <Gold.Chemscore.Internal_Hbond>
0.0000

> <Gold.Chemscore.DEClash>
0.0814

> <Gold.Chemscore.DEInternal>
0.4467

> <Gold.Chemscore.Rot>
1.6273

> <Gold.Chemscore.Internal.Correction>
   9.000000E+99

> <Gold.Chemscore.Hbonds>
donor molecule, donor type, donor heavy atom, donor atom, acceptor molecule, acceptor atom, score
      L1  H     7    42       P1  7948  1.00

> <Gold.Chemscore.Hbond.Weighted>
-3.3125

> <Gold.Chemscore.Metal.Weighted>
-0.0000

> <Gold.Chemscore.Lipo.Weighted>
-11.1765

> <Gold.Chemscore.Internal_Hbond.Weighted>
0.0000

> <Gold.Chemscore.DEClash.Weighted>
0.0814

> <Gold.Chemscore.DEInternal.Weighted>
0.4467

> <Gold.Chemscore.Rot.Weighted>
4.1658

> <Gold.Chemscore.Internal.Correction.Weighted>
   9.000000E+99

> <Gold.Protein.RotatedTorsions>
[ 6907 6896 6895 6894 ] final -124.97 input  -60.11 | X-H torsion
[ 7974 7965 7964 7962 ] final   53.28 input  175.53 | X-H torsion
[ 8008 7997 7996 7995 ] final -140.91 input   59.86 | X-H torsion
[ 10167 10162 10161 10158 ] final  143.41 input  -65.29 | X-H torsion
[ 10718 10713 10712 10709 ] final  -14.28 input   66.30 | X-H torsion
[ 10763 10752 10751 10750 ] final  -95.28 input  -60.55 | X-H torsion
[ 11005 11000 10999 10996 ] final  -66.99 input  -57.11 | X-H torsion

> <Gold.Protein.ActiveResidues>
 VAL166  LYS551  ARG553  GLY616  TRP617  ASP618  TYR619  PRO620  LYS621  CYS622 
 ASP623  PHE694  ASN695  SER759  ASP760  ASP761  ALA762  ILE779  LEU786  VAL792 
 PHE793  MET794  SER795  GLU796  ALA797  LYS798  CYS799  TRP800  GLU811  SER814 

> <Gold.Protein.RotatedAtoms>
  150.8821  133.7358  159.2928 H   0  0  0  0  0  0  0  0  0  0  0  0  # atno 6907 bound_to 6896
  151.4936  135.1057  159.9820 H   0  0  0  0  0  0  0  0  0  0  0  0  # atno 6908 bound_to 6896
  152.4766  133.8107  159.7057 H   0  0  0  0  0  0  0  0  0  0  0  0  # atno 6909 bound_to 6896
  145.9728  139.4165  143.0180 H   0  0  0  0  0  0  0  0  0  0  0  0  # atno 7974 bound_to 7965
  155.4692  140.0551  157.2981 H   0  0  0  0  0  0  0  0  0  0  0  0  # atno 8008 bound_to 7997
  154.4705  140.2038  155.9960 H   0  0  0  0  0  0  0  0  0  0  0  0  # atno 8009 bound_to 7997
  156.1048  140.3213  155.7996 H   0  0  0  0  0  0  0  0  0  0  0  0  # atno 8010 bound_to 7997
  139.4970  144.6042  151.6415 H   0  0  0  0  0  0  0  0  0  0  0  0  # atno 10167 bound_to 10162
  156.6182  130.4868  149.6175 H   0  0  0  0  0  0  0  0  0  0  0  0  # atno 10718 bound_to 10713
  154.7133  135.5126  153.8700 H   0  0  0  0  0  0  0  0  0  0  0  0  # atno 10763 bound_to 10752
  153.0799  135.6628  154.0075 H   0  0  0  0  0  0  0  0  0  0  0  0  # atno 10764 bound_to 10752
  153.9913  135.3019  155.3391 H   0  0  0  0  0  0  0  0  0  0  0  0  # atno 10765 bound_to 10752
  141.1496  133.6710  156.6224 H   0  0  0  0  0  0  0  0  0  0  0  0  # atno 11005 bound_to 11000
  145.7882  140.9826  143.1063 LP  0  0  0  0  0  0  0  0  0  0  0  0  # atno 17320 bound_to 7965
  144.6841  139.9649  143.7481 LP  0  0  0  0  0  0  0  0  0  0  0  0  # atno 17321 bound_to 7965
  140.5699  144.0126  150.6211 LP  0  0  0  0  0  0  0  0  0  0  0  0  # atno 17342 bound_to 10162
  140.3240  143.3119  152.0755 LP  0  0  0  0  0  0  0  0  0  0  0  0  # atno 17343 bound_to 10162
  156.2333  130.6807  151.1485 LP  0  0  0  0  0  0  0  0  0  0  0  0  # atno 17370 bound_to 10713
  157.7235  131.0666  150.6034 LP  0  0  0  0  0  0  0  0  0  0  0  0  # atno 17371 bound_to 10713
  140.3530  134.7752  157.4480 LP  0  0  0  0  0  0  0  0  0  0  0  0  # atno 17394 bound_to 11000
  140.0846  134.5685  155.8506 LP  0  0  0  0  0  0  0  0  0  0  0  0  # atno 17395 bound_to 11000

$$$$
