#       Name:                AV-unprocessed.smi:83
#       Creating user name   scv26
#       Creation time:       Thu Mar 26 17:19:36 2020


#       File generated by GOLD software.
#

@<TRIPOS>MOLECULE
AV-unprocessed.smi:83
    65    68     1
SMALL
NO_CHARGES


@<TRIPOS>ATOM
      1 ****        -4.7124  -4.9097   0.3202 C.3            1 S1                 0.0000
      2 ****        -3.6530  -3.8337   0.0766 C.2            1 S1                 0.0000
      3 ****        -2.6768  -3.7766   0.8242 O.2            1 S1                 0.0000
      4 ****        -3.8297  -2.9814  -0.9530 N.am           1 S1                 0.0000
      5 ****        -4.9519  -2.9944  -1.8901 C.3            1 S1                 0.0000
      6 ****        -4.5897  -1.9786  -2.9753 C.3            1 S1                 0.0000
      7 ****        -3.6516  -1.0042  -2.2716 C.3            1 S1                 0.0000
      8 ****        -2.7500  -0.2008  -3.2291 C.3            1 S1                 0.0000
      9 ****        -1.9565   0.8162  -2.5356 N.pl3          1 S1                 0.0000
     10 ****        -2.6339   2.0250  -2.0846 C.3            1 S1                 0.0000
     11 ****        -0.7642   0.4634  -1.9792 C.ar           1 S1                 0.0000
     12 ****         0.0137  -0.4265  -2.6514 N.ar           1 S1                 0.0000
     13 ****         1.1901  -0.8188  -2.1564 C.ar           1 S1                 0.0000
     14 ****         1.7774  -0.4539  -1.0172 N.ar           1 S1                 0.0000
     15 ****         1.0075   0.4369  -0.3305 C.ar           1 S1                 0.0000
     16 ****        -0.2614   0.9483  -0.7323 C.ar           1 S1                 0.0000
     17 ****        -0.7332   1.8245   0.2411 N.2            1 S1                 0.0000
     18 ****         0.2003   1.8368   1.1521 C.2            1 S1                 0.0000
     19 ****         1.2818   1.0310   0.8884 N.pl3          1 S1                 0.0000
     20 ****         2.4552   0.8553   1.7260 C.3            1 S1                 0.0000
     21 ****         3.4764   1.9966   1.5532 C.3            1 S1                 0.0000
     22 ****         3.8903   2.0540   0.2013 O.3            1 S1                 0.0000
     23 ****         4.7165   1.8086   2.4464 C.3            1 S1                 0.0000
     24 ****         5.7305   2.9534   2.3747 C.3            1 S1                 0.0000
     25 ****         6.4212   2.9173   3.7300 C.3            1 S1                 0.0000
     26 ****         5.5479   1.9824   4.5696 C.3            1 S1                 0.0000
     27 ****         4.3531   1.8270   3.8183 O.3            1 S1                 0.0000
     28 ****        -2.9032  -1.9014  -1.2793 C.3            1 S1                 0.0000
     29 ****        -5.6982  -4.4619   0.4480 H              1 S1                 0.0000
     30 ****        -4.4825  -5.4784   1.2219 H              1 S1                 0.0000
     31 ****        -4.7501  -5.6073  -0.5168 H              1 S1                 0.0000
     32 ****        -5.1226  -3.9828  -2.3187 H              1 S1                 0.0000
     33 ****        -5.8582  -2.6865  -1.3669 H              1 S1                 0.0000
     34 ****        -4.0622  -2.4842  -3.7856 H              1 S1                 0.0000
     35 ****        -5.4654  -1.4887  -3.4020 H              1 S1                 0.0000
     36 ****        -4.2720  -0.3119  -1.7002 H              1 S1                 0.0000
     37 ****        -2.1236  -0.8751  -3.8130 H              1 S1                 0.0000
     38 ****        -3.3773   0.3097  -3.9604 H              1 S1                 0.0000
     39 ****        -1.9384   2.8625  -2.0228 H              1 S1                 0.0000
     40 ****        -3.0895   1.8704  -1.1062 H              1 S1                 0.0000
     41 ****        -3.4241   2.3039  -2.7820 H              1 S1                 0.0000
     42 ****         1.7375  -1.5284  -2.7589 H              1 S1                 0.0000
     43 ****         0.1255   2.4372   2.0470 H              1 S1                 0.0000
     44 ****         2.1232   0.7983   2.7631 H              1 S1                 0.0000
     45 ****         2.9128  -0.1071   1.4942 H              1 S1                 0.0000
     46 ****         2.9977   2.9461   1.7971 H              1 S1                 0.0000
     47 ****         4.2528   1.2144  -0.0369 H              1 S1                 0.0000
     48 ****         5.2088   0.8591   2.2256 H              1 S1                 0.0000
     49 ****         6.4265   2.8434   1.5426 H              1 S1                 0.0000
     50 ****         5.2160   3.9081   2.2555 H              1 S1                 0.0000
     51 ****         7.4396   2.5342   3.6557 H              1 S1                 0.0000
     52 ****         6.4689   3.9166   4.1639 H              1 S1                 0.0000
     53 ****         6.0282   1.0097   4.6847 H              1 S1                 0.0000
     54 ****         5.3406   2.3797   5.5634 H              1 S1                 0.0000
     55 ****        -2.5961  -1.3412  -0.3944 H              1 S1                 0.0000
     56 ****        -2.0107  -2.3337  -1.7342 H              1 S1                 0.0000
     57 ****        -2.5852  -4.4279   1.5775 LP             1 S1                 0.0000
     58 ****        -1.9754  -3.0790   0.6783 LP             1 S1                 0.0000
     59 ****        -0.2994  -0.7920  -3.5280 LP             1 S1                 0.0000
     60 ****         2.6667  -0.7898  -0.7067 LP             1 S1                 0.0000
     61 ****        -1.5953   2.3313   0.2418 LP             1 S1                 0.0000
     62 ****         4.5848   2.7649   0.0910 LP             1 S1                 0.0000
     63 ****         3.1057   2.2608  -0.3833 LP             1 S1                 0.0000
     64 ****         3.9031   0.9685   4.0647 LP             1 S1                 0.0000
     65 ****         3.7339   2.5914   3.9981 LP             1 S1                 0.0000
@<TRIPOS>BOND
    1    1    2 1     
    2    1   29 1     
    3    1   30 1     
    4    1   31 1     
    5    2    3 2     
    6    2    4 am    
    7    4   28 1     
    8    4    5 1     
    9    5    6 1     
   10    5   32 1     
   11    5   33 1     
   12    6    7 1     
   13    6   34 1     
   14    6   35 1     
   15    7    8 1     
   16    7   28 1     
   17    7   36 1     
   18    8    9 1     
   19    8   37 1     
   20    8   38 1     
   21    9   10 1     
   22    9   11 1     
   23   10   39 1     
   24   10   40 1     
   25   10   41 1     
   26   11   16 ar    
   27   11   12 ar    
   28   12   13 ar    
   29   13   14 ar    
   30   13   42 1     
   31   14   15 ar    
   32   15   19 1     
   33   15   16 ar    
   34   16   17 1     
   35   17   18 2     
   36   18   19 1     
   37   18   43 1     
   38   19   20 1     
   39   20   21 1     
   40   20   44 1     
   41   20   45 1     
   42   21   22 1     
   43   21   23 1     
   44   21   46 1     
   45   22   47 1     
   46   23   27 1     
   47   23   24 1     
   48   23   48 1     
   49   24   25 1     
   50   24   49 1     
   51   24   50 1     
   52   25   26 1     
   53   25   51 1     
   54   25   52 1     
   55   26   27 1     
   56   26   53 1     
   57   26   54 1     
   58   28   55 1     
   59   28   56 1     
   60    3   57 1     
   61    3   58 1     
   62   12   59 1     
   63   14   60 1     
   64   17   61 1     
   65   22   62 1     
   66   22   63 1     
   67   27   64 1     
   68   27   65 1     
@<TRIPOS>SUBSTRUCTURE
      1 S1             1
@<TRIPOS>SET
LONE_PAIRS      STATIC     ATOMS    <user>   **** ""
9 57 58 59 60 61 62 63 64 65
DONOR_HYDROGENS      STATIC     ATOMS    <user>   **** ""
1 47
ATOM$BLUE        STATIC     ATOMS    COLORGROUP SYSTEM
9 57 58 59 60 61 62 63 64 65
ATOM$RED        STATIC     ATOMS    COLORGROUP SYSTEM
1 47
