AV-unprocessed.smi:1864|AV-procd|sdf|7552|dock1
  -GOLD-   22720 9263D 1   1.00000     0.00000
 Structure written by MMmdl.
 34 35  0  0  0  0  0  0  0  0  1 V2000
  155.5006  144.1586  166.2456 C   0  0  0  0  0  0  0  0  0  0  0  0
  155.1603  143.3174  165.0635 C   0  0  0  0  0  0  0  0  0  0  0  0
  155.8781  142.2437  164.7577 N   0  0  0  0  0  0  0  0  0  0  0  0
  155.2398  141.7437  163.6134 O   0  0  0  0  0  0  0  0  0  0  0  0
  154.2178  142.5955  163.3581 C   0  0  0  0  0  0  0  0  0  0  0  0
  153.3049  142.3049  162.2142 C   0  0  0  0  0  0  0  0  0  0  0  0
  153.8389  141.1819  161.3111 C   0  0  0  0  0  0  0  0  0  0  0  0
  153.0975  141.0983  160.0581 N   0  0  0  0  0  0  0  0  0  0  0  0
  153.1545  140.0709  159.1911 C   0  0  0  0  0  0  0  0  0  0  0  0
  153.8619  139.0798  159.3745 O   0  0  0  0  0  0  0  0  0  0  0  0
  152.3037  140.1935  157.9768 C   0  0  0  0  0  0  0  0  0  0  0  0
  152.5805  139.4999  156.9171 N   0  0  0  0  0  0  0  0  0  0  0  0
  151.8128  139.5733  155.7725 N   0  0  0  0  0  0  0  0  0  0  0  0
  152.0933  138.5393  154.7782 C   0  0  0  0  0  0  0  0  0  0  0  0
  150.8833  140.5304  155.5272 C   0  0  0  0  0  0  0  0  0  0  0  0
  150.2002  140.5748  154.5042 O   0  0  0  0  0  0  0  0  0  0  0  0
  150.7264  141.6181  156.5937 C   0  0  0  0  0  0  0  0  0  0  0  0
  151.0984  141.1125  158.0019 C   0  0  0  0  0  0  0  0  0  0  0  0
  154.1095  143.5859  164.2406 N   0  0  0  0  0  0  0  0  0  0  0  0
  156.5078  144.5632  166.1440 H   0  0  0  0  0  0  0  0  0  0  0  0
  155.4547  143.5638  167.1582 H   0  0  0  0  0  0  0  0  0  0  0  0
  154.8027  144.9909  166.3412 H   0  0  0  0  0  0  0  0  0  0  0  0
  152.3254  142.0347  162.6106 H   0  0  0  0  0  0  0  0  0  0  0  0
  153.1680  143.2227  161.6411 H   0  0  0  0  0  0  0  0  0  0  0  0
  154.9016  141.3262  161.1084 H   0  0  0  0  0  0  0  0  0  0  0  0
  153.7479  140.2221  161.8208 H   0  0  0  0  0  0  0  0  0  0  0  0
  152.4910  141.8738  159.8322 H   0  0  0  0  0  0  0  0  0  0  0  0
  151.1952  137.9576  154.5644 H   0  0  0  0  0  0  0  0  0  0  0  0
  152.8629  137.8434  155.1168 H   0  0  0  0  0  0  0  0  0  0  0  0
  152.4416  138.9866  153.8460 H   0  0  0  0  0  0  0  0  0  0  0  0
  151.3807  142.4452  156.3157 H   0  0  0  0  0  0  0  0  0  0  0  0
  149.7076  142.0072  156.5870 H   0  0  0  0  0  0  0  0  0  0  0  0
  150.2529  140.5831  158.4425 H   0  0  0  0  0  0  0  0  0  0  0  0
  151.2863  141.9770  158.6400 H   0  0  0  0  0  0  0  0  0  0  0  0
  1  2  1  0  0  0  0
  1 20  1  0  0  0  0
  1 21  1  0  0  0  0
  1 22  1  0  0  0  0
  2 19  1  0  0  0  0
  2  3  2  0  0  0  0
  3  4  1  0  0  0  0
  4  5  1  0  0  0  0
  5  6  1  0  0  0  0
  5 19  2  0  0  0  0
  6  7  1  0  0  0  0
  6 23  1  0  0  0  0
  6 24  1  0  0  0  0
  7  8  1  0  0  0  0
  7 25  1  0  0  0  0
  7 26  1  0  0  0  0
  8  9  1  0  0  0  0
  8 27  1  0  0  0  0
  9 10  2  0  0  0  0
  9 11  1  0  0  0  0
 11 18  1  0  0  0  0
 11 12  2  0  0  0  0
 12 13  1  0  0  0  0
 13 14  1  0  0  0  0
 13 15  1  0  0  0  0
 14 28  1  0  0  0  0
 14 29  1  0  0  0  0
 14 30  1  0  0  0  0
 15 16  2  0  0  0  0
 15 17  1  0  0  0  0
 17 18  1  0  0  0  0
 17 31  1  0  0  0  0
 17 32  1  0  0  0  0
 18 33  1  0  0  0  0
 18 34  1  0  0  0  0
M  END
> <s_m_source_file>
AV-unprocessed.smi

> <i_m_source_file_index>
1864

> <i_lp_mmshare_version>
43012

> <i_f3d_flags>
0

> <s_epik_input>
W0NIM11jMW5vYyhuMSlbQ0gyXVtDSDJdW05IXUMoPU8pQzI9Tk4oW0NIM10pQyg9TylbQ0gyXVtDSDJdMg==

> <s_epik_cmdline>
J2VwaWtfcHl0aG9uJywgJy1waCcsICc3LjAnLCAnLXRuJywgJzgnLCAnLW1hJywgJzIwMCcsICctbWV0YWxfYmluZGluZycsICctaW1hZScsICc8aW5maWxlLm1hZT4nLCAnLW9tYWUnLCAnPG91dGZpbGUubWFlPic=

> <r_lp_tautomer_probability>
1

> <r_epik_Ionization_Penalty>
0.00011851

> <r_epik_Ionization_Penalty_Charging>
0

> <r_epik_Ionization_Penalty_Neutral>
0.00011851

> <r_epik_State_Penalty>
-0

> <r_epik_Charging_Adjusted_Penalty>
0

> <i_epik_Tot_Q>
0

> <i_epik_Tot_abs_Q>
0

> <r_epik_Metal_State_Penalty>
0.091363

> <b_epik_Metal_Only>
0

> <s_epik_Chemistry_Notes>
This compound has an imine and may undergo hydrolysis.

> <s_lp_Force_Field>
OPLS_2005

> <r_lp_Energy>
12.468

> <b_lp_Chiralities_Consistent>
1

> <s_lp_Variant>
AV-unprocessed.smi:1864-1

> <Gold.Version>
5.8.1

> <Gold.Id.Protein>
6NUR|6NUR_protein|mol2

> <Gold.PLP.Fitness>
46.5226

> <Gold.PLP.PLP>
-41.3477

> <Gold.PLP.part.hbond>
-4.1284

> <Gold.PLP.part.metal>
0.0000

> <Gold.PLP.part.buried>
-3.1211

> <Gold.PLP.part.nonpolar>
-32.8247

> <Gold.PLP.part.repulsive>
0.2931

> <Gold.PLP.ligand.clash>
0.0000

> <Gold.PLP.ligand.torsion>
0.4075

> <Gold.PLP.Chemscore.Hbond>
1.9920

> <Gold.PLP.Chemscore.CHOScore>
0.0000

> <Gold.PLP.Chemscore.Metal>
0.0000

> <Gold.Chemscore.Hbonds>
donor molecule, donor type, donor heavy atom, donor atom, acceptor molecule, acceptor atom, score
      P1  H  7989  7998       L1    16  0.53
      P1  H  7997  8008       L1    12  0.59

> <Gold.PLP.Chemscore.Internal.Correction>
0.0138

> <Gold.Rescore>
     Score         DG    S(hbond)    S(metal)    S(lipo)     H(rot)  DE(clash)    DE(int)     intcor
      9.16     -10.63       0.86        0.00      58.84       1.80       1.02       0.45       ----

> <Gold.Chemscore.Fitness>
9.1574

> <Gold.Chemscore.DG>
-10.6256

> <Gold.Chemscore.ZeroCoef>
-5.4800

> <Gold.Chemscore.Hbond>
0.8617

> <Gold.Chemscore.Metal>
0.0000

> <Gold.Chemscore.Lipo>
58.8402

> <Gold.Chemscore.Internal_Hbond>
0.0000

> <Gold.Chemscore.DEClash>
1.0193

> <Gold.Chemscore.DEInternal>
0.4489

> <Gold.Chemscore.Rot>
1.8034

> <Gold.Chemscore.Internal.Correction>
   9.000000E+99

> <Gold.Chemscore.Hbonds>
donor molecule, donor type, donor heavy atom, donor atom, acceptor molecule, acceptor atom, score
      P1  H  7989  7998       L1    16  0.04
      P1  H  7997  8008       L1    12  0.05

> <Gold.Chemscore.Hbond.Weighted>
-2.8780

> <Gold.Chemscore.Metal.Weighted>
-0.0000

> <Gold.Chemscore.Lipo.Weighted>
-6.8843

> <Gold.Chemscore.Internal_Hbond.Weighted>
0.0000

> <Gold.Chemscore.DEClash.Weighted>
1.0193

> <Gold.Chemscore.DEInternal.Weighted>
0.4489

> <Gold.Chemscore.Rot.Weighted>
4.6167

> <Gold.Chemscore.Internal.Correction.Weighted>
   9.000000E+99

> <Gold.Protein.RotatedTorsions>
[ 6907 6896 6895 6894 ] final  -43.98 input  -60.11 | X-H torsion
[ 7974 7965 7964 7962 ] final   -9.62 input  175.53 | X-H torsion
[ 8008 7997 7996 7995 ] final  -81.06 input   59.86 | X-H torsion
[ 10167 10162 10161 10158 ] final  -34.95 input  -65.29 | X-H torsion
[ 10718 10713 10712 10709 ] final  101.00 input   66.30 | X-H torsion
[ 10763 10752 10751 10750 ] final   80.77 input  -60.55 | X-H torsion
[ 11005 11000 10999 10996 ] final   32.85 input  -57.11 | X-H torsion

> <Gold.Protein.ActiveResidues>
 VAL166  LYS551  ARG553  GLY616  TRP617  ASP618  TYR619  PRO620  LYS621  CYS622 
 ASP623  PHE694  ASN695  SER759  ASP760  ASP761  ALA762  ILE779  LEU786  VAL792 
 PHE793  MET794  SER795  GLU796  ALA797  LYS798  CYS799  TRP800  GLU811  SER814 

> <Gold.Protein.RotatedAtoms>
  150.9379  134.8790  159.7592 H   0  0  0  0  0  0  0  0  0  0  0  0  # atno 6907 bound_to 6896
  152.5067  134.3984  159.9418 H   0  0  0  0  0  0  0  0  0  0  0  0  # atno 6908 bound_to 6896
  151.4007  133.3718  159.2767 H   0  0  0  0  0  0  0  0  0  0  0  0  # atno 6909 bound_to 6896
  146.2246  140.2644  142.8353 H   0  0  0  0  0  0  0  0  0  0  0  0  # atno 7974 bound_to 7965
  154.5945  140.0653  156.9284 H   0  0  0  0  0  0  0  0  0  0  0  0  # atno 8008 bound_to 7997
  155.2238  140.3332  155.4294 H   0  0  0  0  0  0  0  0  0  0  0  0  # atno 8009 bound_to 7997
  156.2278  140.1827  156.7304 H   0  0  0  0  0  0  0  0  0  0  0  0  # atno 8010 bound_to 7997
  140.7175  143.3511  151.2153 H   0  0  0  0  0  0  0  0  0  0  0  0  # atno 10167 bound_to 10162
  157.6840  131.0714  150.5186 H   0  0  0  0  0  0  0  0  0  0  0  0  # atno 10718 bound_to 10713
  153.1061  135.4790  154.8954 H   0  0  0  0  0  0  0  0  0  0  0  0  # atno 10763 bound_to 10752
  154.7431  135.3087  154.8694 H   0  0  0  0  0  0  0  0  0  0  0  0  # atno 10764 bound_to 10752
  153.9297  135.6846  153.4799 H   0  0  0  0  0  0  0  0  0  0  0  0  # atno 10765 bound_to 10752
  140.2691  134.3102  155.7833 H   0  0  0  0  0  0  0  0  0  0  0  0  # atno 11005 bound_to 11000
  144.9315  140.7980  143.5686 LP  0  0  0  0  0  0  0  0  0  0  0  0  # atno 17320 bound_to 7965
  145.2588  139.2001  143.4903 LP  0  0  0  0  0  0  0  0  0  0  0  0  # atno 17321 bound_to 7965
  139.7042  143.9482  152.2919 LP  0  0  0  0  0  0  0  0  0  0  0  0  # atno 17342 bound_to 10162
  139.9185  144.6814  150.8486 LP  0  0  0  0  0  0  0  0  0  0  0  0  # atno 17343 bound_to 10162
  156.5500  130.4229  149.6112 LP  0  0  0  0  0  0  0  0  0  0  0  0  # atno 17370 bound_to 10713
  156.2911  130.7124  151.1973 LP  0  0  0  0  0  0  0  0  0  0  0  0  # atno 17371 bound_to 10713
  141.2180  133.7456  156.9307 LP  0  0  0  0  0  0  0  0  0  0  0  0  # atno 17394 bound_to 11000
  140.1390  134.9306  157.2441 LP  0  0  0  0  0  0  0  0  0  0  0  0  # atno 17395 bound_to 11000

$$$$
