AV-unprocessed.smi:3058|AV-procd|sdf|11674|dock8
  -GOLD-   2272017 83D 1   1.00000     0.00000
 Structure written by MMmdl.
 39 41  0  0  0  0  0  0  0  0  2 V2000
  150.9944  141.6048  157.9096 O   0  0  0  0  0  0  0  0  0  0  0  0
  150.5784  142.6517  157.4114 C   0  0  0  0  0  0  0  0  0  0  0  0
  149.9584  142.6960  156.2220 N   0  0  0  0  0  0  0  0  0  0  0  0
  149.7098  141.5417  155.3670 C   0  0  0  0  0  0  0  0  0  0  0  0
  148.2311  141.1217  155.3998 C   0  0  0  0  0  0  0  0  0  0  0  0
  147.7910  140.4857  154.0959 C   0  0  0  0  0  0  0  0  0  0  0  0
  146.8744  141.1485  153.2501 C   0  0  0  0  0  0  0  0  0  0  0  0
  146.4848  140.5385  152.0395 C   0  0  0  0  0  0  0  0  0  0  0  0
  147.0219  139.2796  151.7015 C   0  0  0  0  0  0  0  0  0  0  0  0
  147.8973  138.6759  152.5355 N   0  3  0  0  0  0  0  0  0  0  0  0
  148.2946  139.2264  153.7039 C   0  0  0  0  0  0  0  0  0  0  0  0
  150.7283  143.9956  158.1465 C   0  0  1  0  0  0  0  0  0  0  0  0
  150.1631  144.0127  159.5886 C   0  0  0  0  0  0  0  0  0  0  0  0
  151.3524  144.5280  160.4208 C   0  0  1  0  0  0  0  0  0  0  0  0
  152.4222  143.4250  160.5275 C   0  0  0  0  0  0  0  0  0  0  0  0
  153.0474  143.4212  159.1204 C   0  0  0  0  0  0  0  0  0  0  0  0
  152.1921  144.4632  158.3660 C   0  0  2  0  0  0  0  0  0  0  0  0
  152.0045  145.5132  159.4574 C   0  0  0  0  0  0  0  0  0  0  0  0
  149.6378  143.5931  155.8873 H   0  0  0  0  0  0  0  0  0  0  0  0
  150.0230  141.7628  154.3451 H   0  0  0  0  0  0  0  0  0  0  0  0
  150.3381  140.7206  155.7129 H   0  0  0  0  0  0  0  0  0  0  0  0
  148.0589  140.4194  156.2165 H   0  0  0  0  0  0  0  0  0  0  0  0
  147.5951  141.9852  155.5998 H   0  0  0  0  0  0  0  0  0  0  0  0
  146.4753  142.1146  153.5237 H   0  0  0  0  0  0  0  0  0  0  0  0
  145.7849  141.0307  151.3800 H   0  0  0  0  0  0  0  0  0  0  0  0
  146.7802  138.7422  150.7960 H   0  0  0  0  0  0  0  0  0  0  0  0
  148.9995  138.6478  154.2832 H   0  0  0  0  0  0  0  0  0  0  0  0
  150.2044  144.7590  157.5676 H   0  0  0  0  0  0  0  0  0  0  0  0
  149.3244  144.7072  159.6540 H   0  0  0  0  0  0  0  0  0  0  0  0
  149.8068  143.0457  159.9461 H   0  0  0  0  0  0  0  0  0  0  0  0
  151.0608  144.9479  161.3839 H   0  0  0  0  0  0  0  0  0  0  0  0
  153.1714  143.6753  161.2797 H   0  0  0  0  0  0  0  0  0  0  0  0
  151.9907  142.4590  160.7925 H   0  0  0  0  0  0  0  0  0  0  0  0
  154.0851  143.7541  159.1717 H   0  0  0  0  0  0  0  0  0  0  0  0
  153.0546  142.4343  158.6597 H   0  0  0  0  0  0  0  0  0  0  0  0
  152.6663  144.8419  157.4601 H   0  0  0  0  0  0  0  0  0  0  0  0
  151.3461  146.3330  159.1644 H   0  0  0  0  0  0  0  0  0  0  0  0
  152.9434  145.9264  159.8305 H   0  0  0  0  0  0  0  0  0  0  0  0
  148.2748  137.7654  152.2714 H   0  0  0  0  0  0  0  0  0  0  0  0
  1  2  2  0  0  0  0
  2  3  1  0  0  0  0
  2 12  1  0  0  0  0
  3  4  1  0  0  0  0
  3 19  1  0  0  0  0
  4  5  1  0  0  0  0
  4 20  1  0  0  0  0
  4 21  1  0  0  0  0
  5  6  1  0  0  0  0
  5 22  1  0  0  0  0
  5 23  1  0  0  0  0
  6 11  1  0  0  0  0
  6  7  2  0  0  0  0
  7  8  1  0  0  0  0
  7 24  1  0  0  0  0
  8  9  2  0  0  0  0
  8 25  1  0  0  0  0
  9 10  1  0  0  0  0
  9 26  1  0  0  0  0
 10 11  2  0  0  0  0
 10 39  1  0  0  0  0
 11 27  1  0  0  0  0
 12 17  1  0  0  0  0
 12 13  1  0  0  0  0
 12 28  1  0  0  0  0
 13 14  1  0  0  0  0
 13 29  1  0  0  0  0
 13 30  1  0  0  0  0
 14 18  1  0  0  0  0
 14 15  1  0  0  0  0
 14 31  1  0  0  0  0
 15 16  1  0  0  0  0
 15 32  1  0  0  0  0
 15 33  1  0  0  0  0
 16 17  1  0  0  0  0
 16 34  1  0  0  0  0
 16 35  1  0  0  0  0
 17 18  1  0  0  0  0
 17 36  1  0  0  0  0
 18 37  1  0  0  0  0
 18 38  1  0  0  0  0
M  CHG  1  10   1
M  END
> <s_m_source_file>
AV-unprocessed.smi

> <i_m_source_file_index>
3058

> <i_lp_mmshare_version>
43012

> <i_f3d_flags>
0

> <s_epik_input>
W0NIMl0xW0NIMl1bQ0BIXShbQ0gyXTIpW0NAQEhdKFtDSDJdW0NAQEhdMTIpQyg9TylbTkhdW0NIMl1bQ0gyXWMzW2NIXVtjSF1bY0hdbltjSF0z

> <s_epik_cmdline>
J2VwaWtfcHl0aG9uJywgJy1waCcsICc3LjAnLCAnLXRuJywgJzgnLCAnLW1hJywgJzIwMCcsICctbWV0YWxfYmluZGluZycsICctaW1hZScsICc8aW5maWxlLm1hZT4nLCAnLW9tYWUnLCAnPG91dGZpbGUubWFlPic=

> <r_epik_Ionization_Penalty>
2.24375

> <r_epik_Ionization_Penalty_Charging>
2.24375

> <r_epik_Ionization_Penalty_Neutral>
1.89995e-08

> <r_epik_State_Penalty>
2.39035

> <r_epik_Charging_Adjusted_Penalty>
4.63411

> <i_epik_Tot_Q>
1

> <i_epik_Tot_abs_Q>
1

> <r_epik_Metal_State_Penalty>
2.40369

> <b_epik_Metal_Only>
0

> <s_lp_Force_Field>
OPLS_2005

> <r_lp_Energy>
53.8875

> <b_lp_Chiralities_Consistent>
1

> <s_lp_Variant>
AV-unprocessed.smi:3058-6

> <Gold.Version>
5.8.1

> <Gold.Id.Protein>
6NUR|6NUR_protein|mol2

> <Gold.PLP.Fitness>
50.8766

> <Gold.PLP.PLP>
-42.6429

> <Gold.PLP.part.hbond>
-2.9339

> <Gold.PLP.part.metal>
0.0000

> <Gold.PLP.part.buried>
1.6174

> <Gold.PLP.part.nonpolar>
-41.5273

> <Gold.PLP.part.repulsive>
0.2015

> <Gold.PLP.ligand.clash>
0.0000

> <Gold.PLP.ligand.torsion>
0.3880

> <Gold.PLP.Chemscore.Hbond>
3.0000

> <Gold.PLP.Chemscore.CHOScore>
0.0000

> <Gold.PLP.Chemscore.Metal>
0.0000

> <Gold.Chemscore.Hbonds>
donor molecule, donor type, donor heavy atom, donor atom, acceptor molecule, acceptor atom, score
      L1  H     3    19       P1  8028  0.60
      L1  H    10    39       P1  7948  2.00

> <Gold.PLP.Chemscore.Internal.Correction>
0.0096

> <Gold.Rescore>
     Score         DG    S(hbond)    S(metal)    S(lipo)     H(rot)  DE(clash)    DE(int)     intcor
     20.73     -23.94       1.94        0.00     134.12       1.45       1.76       1.45       ----

> <Gold.Chemscore.Fitness>
20.7283

> <Gold.Chemscore.DG>
-23.9406

> <Gold.Chemscore.ZeroCoef>
-5.4800

> <Gold.Chemscore.Hbond>
1.9440

> <Gold.Chemscore.Metal>
0.0000

> <Gold.Chemscore.Lipo>
134.1175

> <Gold.Chemscore.Internal_Hbond>
0.0000

> <Gold.Chemscore.DEClash>
1.7610

> <Gold.Chemscore.DEInternal>
1.4513

> <Gold.Chemscore.Rot>
1.4548

> <Gold.Chemscore.Internal.Correction>
   9.000000E+99

> <Gold.Chemscore.Hbonds>
donor molecule, donor type, donor heavy atom, donor atom, acceptor molecule, acceptor atom, score
      L1  H     3    19       P1  8028  0.60
      L1  H    10    39       P1  7948  1.00

> <Gold.Chemscore.Hbond.Weighted>
-6.4930

> <Gold.Chemscore.Metal.Weighted>
-0.0000

> <Gold.Chemscore.Lipo.Weighted>
-15.6917

> <Gold.Chemscore.Internal_Hbond.Weighted>
0.0000

> <Gold.Chemscore.DEClash.Weighted>
1.7610

> <Gold.Chemscore.DEInternal.Weighted>
1.4513

> <Gold.Chemscore.Rot.Weighted>
3.7242

> <Gold.Chemscore.Internal.Correction.Weighted>
   9.000000E+99

> <Gold.Protein.RotatedTorsions>
[ 6907 6896 6895 6894 ] final -160.55 input  -60.11 | X-H torsion
[ 7974 7965 7964 7962 ] final -144.49 input  175.53 | X-H torsion
[ 8008 7997 7996 7995 ] final -112.18 input   59.86 | X-H torsion
[ 10167 10162 10161 10158 ] final  163.62 input  -65.29 | X-H torsion
[ 10718 10713 10712 10709 ] final  -44.70 input   66.30 | X-H torsion
[ 10763 10752 10751 10750 ] final  -61.88 input  -60.55 | X-H torsion
[ 11005 11000 10999 10996 ] final   15.52 input  -57.11 | X-H torsion

> <Gold.Protein.ActiveResidues>
 VAL166  LYS551  ARG553  GLY616  TRP617  ASP618  TYR619  PRO620  LYS621  CYS622 
 ASP623  PHE694  ASN695  SER759  ASP760  ASP761  ALA762  ILE779  LEU786  VAL792 
 PHE793  MET794  SER795  GLU796  ALA797  LYS798  CYS799  TRP800  GLU811  SER814 

> <Gold.Protein.RotatedAtoms>
  151.3509  133.3926  159.2679 H   0  0  0  0  0  0  0  0  0  0  0  0  # atno 6907 bound_to 6896
  150.9802  134.9159  159.7850 H   0  0  0  0  0  0  0  0  0  0  0  0  # atno 6908 bound_to 6896
  152.5214  134.3472  159.9290 H   0  0  0  0  0  0  0  0  0  0  0  0  # atno 6909 bound_to 6896
  144.8294  140.5703  143.5525 H   0  0  0  0  0  0  0  0  0  0  0  0  # atno 7974 bound_to 7965
  155.0012  140.0394  157.2361 H   0  0  0  0  0  0  0  0  0  0  0  0  # atno 8008 bound_to 7997
  154.7542  140.2772  155.6244 H   0  0  0  0  0  0  0  0  0  0  0  0  # atno 8009 bound_to 7997
  156.2891  140.2641  156.2303 H   0  0  0  0  0  0  0  0  0  0  0  0  # atno 8010 bound_to 7997
  139.4876  144.4318  151.9061 H   0  0  0  0  0  0  0  0  0  0  0  0  # atno 10167 bound_to 10162
  156.2359  130.4176  149.8819 H   0  0  0  0  0  0  0  0  0  0  0  0  # atno 10718 bound_to 10713
  154.2913  135.6253  153.5386 H   0  0  0  0  0  0  0  0  0  0  0  0  # atno 10763 bound_to 10752
  152.9852  135.5656  154.5386 H   0  0  0  0  0  0  0  0  0  0  0  0  # atno 10764 bound_to 10752
  154.4998  135.2871  155.1406 H   0  0  0  0  0  0  0  0  0  0  0  0  # atno 10765 bound_to 10752
  140.4574  134.1162  155.7711 H   0  0  0  0  0  0  0  0  0  0  0  0  # atno 11005 bound_to 11000
  145.4929  139.1487  143.3699 LP  0  0  0  0  0  0  0  0  0  0  0  0  # atno 17320 bound_to 7965
  146.2597  140.5068  142.8858 LP  0  0  0  0  0  0  0  0  0  0  0  0  # atno 17321 bound_to 7965
  140.3766  144.2789  150.5913 LP  0  0  0  0  0  0  0  0  0  0  0  0  # atno 17342 bound_to 10162
  140.5271  143.2252  151.8297 LP  0  0  0  0  0  0  0  0  0  0  0  0  # atno 17343 bound_to 10162
  156.6417  130.8707  151.3515 LP  0  0  0  0  0  0  0  0  0  0  0  0  # atno 17370 bound_to 10713
  157.7154  130.9491  150.1236 LP  0  0  0  0  0  0  0  0  0  0  0  0  # atno 17371 bound_to 10713
  141.1637  133.8744  157.1776 LP  0  0  0  0  0  0  0  0  0  0  0  0  # atno 17394 bound_to 11000
  139.9967  135.0044  157.0099 LP  0  0  0  0  0  0  0  0  0  0  0  0  # atno 17395 bound_to 11000

$$$$
