AV-unprocessed.smi:2351|AV-procd|sdf|9377|dock8
  -GOLD-   2272013 03D 1   1.00000     0.00000
 Structure written by MMmdl.
 47 49  0  0  0  0  0  0  0  0  2 V2000
  152.4891  139.7711  156.2199 O   0  0  0  0  0  0  0  0  0  0  0  0
  151.4077  140.2750  156.5207 C   0  0  0  0  0  0  0  0  0  0  0  0
  151.1387  140.9243  157.6666 N   0  0  0  0  0  0  0  0  0  0  0  0
  152.0088  141.2302  158.7493 C   0  0  0  0  0  0  0  0  0  0  0  0
  152.9974  140.3505  159.2540 C   0  0  0  0  0  0  0  0  0  0  0  0
  153.8078  140.7869  160.3217 C   0  0  0  0  0  0  0  0  0  0  0  0
  153.6990  142.0068  160.8888 N   0  0  0  0  0  0  0  0  0  0  0  0
  152.7639  142.8470  160.3975 C   0  0  0  0  0  0  0  0  0  0  0  0
  151.9029  142.5101  159.3338 C   0  0  0  0  0  0  0  0  0  0  0  0
  150.9885  143.4041  158.8851 F   0  0  0  0  0  0  0  0  0  0  0  0
  150.3274  140.2276  155.7274 N   0  0  0  0  0  0  0  0  0  0  0  0
  150.2704  139.5897  154.4121 C   0  0  2  0  0  0  0  0  0  0  0  0
  148.8193  139.3837  153.9337 C   0  0  0  0  0  0  0  0  0  0  0  0
  148.0926  138.3009  154.7501 C   0  0  0  0  0  0  0  0  0  0  0  0
  148.8357  137.0149  154.7173 N   0  3  2  0  0  0  0  0  0  0  0  0
  148.0829  135.9159  155.3749 C   0  0  0  0  0  0  0  0  0  0  0  0
  148.3243  134.5473  154.7080 C   0  0  1  0  0  0  0  0  0  0  0  0
  149.7799  134.1263  154.6943 C   0  0  0  0  0  0  0  0  0  0  0  0
  149.6744  132.6227  154.4563 C   0  0  0  0  0  0  0  0  0  0  0  0
  148.4422  132.2203  155.0480 O   0  0  0  0  0  0  0  0  0  0  0  0
  147.6938  133.3645  155.4448 C   0  0  0  0  0  0  0  0  0  0  0  0
  150.2207  137.1729  155.2366 C   0  0  0  0  0  0  0  0  0  0  0  0
  150.9997  138.2355  154.4391 C   0  0  0  0  0  0  0  0  0  0  0  0
  150.1791  141.2078  157.8006 H   0  0  0  0  0  0  0  0  0  0  0  0
  153.1604  139.3659  158.8450 H   0  0  0  0  0  0  0  0  0  0  0  0
  154.5698  140.1384  160.7278 H   0  0  0  0  0  0  0  0  0  0  0  0
  152.7014  143.8186  160.8649 H   0  0  0  0  0  0  0  0  0  0  0  0
  149.4771  140.6557  156.0631 H   0  0  0  0  0  0  0  0  0  0  0  0
  150.7872  140.2392  153.7031 H   0  0  0  0  0  0  0  0  0  0  0  0
  148.2614  140.3197  153.9746 H   0  0  0  0  0  0  0  0  0  0  0  0
  148.8294  139.0884  152.8836 H   0  0  0  0  0  0  0  0  0  0  0  0
  147.9646  138.6246  155.7842 H   0  0  0  0  0  0  0  0  0  0  0  0
  147.0928  138.1596  154.3378 H   0  0  0  0  0  0  0  0  0  0  0  0
  148.3453  135.8772  156.4333 H   0  0  0  0  0  0  0  0  0  0  0  0
  147.0141  136.1318  155.3360 H   0  0  0  0  0  0  0  0  0  0  0  0
  147.9710  134.5518  153.6768 H   0  0  0  0  0  0  0  0  0  0  0  0
  150.3671  134.6354  153.9296 H   0  0  0  0  0  0  0  0  0  0  0  0
  150.2433  134.3172  155.6636 H   0  0  0  0  0  0  0  0  0  0  0  0
  149.6312  132.4080  153.3879 H   0  0  0  0  0  0  0  0  0  0  0  0
  150.5176  132.0752  154.8779 H   0  0  0  0  0  0  0  0  0  0  0  0
  147.7935  133.4815  156.5249 H   0  0  0  0  0  0  0  0  0  0  0  0
  146.6346  133.2456  155.2149 H   0  0  0  0  0  0  0  0  0  0  0  0
  150.1855  137.4444  156.2928 H   0  0  0  0  0  0  0  0  0  0  0  0
  150.7595  136.2284  155.1759 H   0  0  0  0  0  0  0  0  0  0  0  0
  151.1346  137.8823  153.4158 H   0  0  0  0  0  0  0  0  0  0  0  0
  152.0028  138.3537  154.8512 H   0  0  0  0  0  0  0  0  0  0  0  0
  148.9128  136.7631  153.7421 H   0  0  0  0  0  0  0  0  0  0  0  0
  1  2  2  0  0  0  0
  2  3  1  0  0  0  0
  2 11  1  0  0  0  0
  3  4  1  0  0  0  0
  3 24  1  0  0  0  0
  4  9  1  0  0  0  0
  4  5  2  0  0  0  0
  5  6  1  0  0  0  0
  5 25  1  0  0  0  0
  6  7  2  0  0  0  0
  6 26  1  0  0  0  0
  7  8  1  0  0  0  0
  8  9  2  0  0  0  0
  8 27  1  0  0  0  0
  9 10  1  0  0  0  0
 11 12  1  0  0  0  0
 11 28  1  0  0  0  0
 12 23  1  0  0  0  0
 12 13  1  0  0  0  0
 12 29  1  0  0  0  0
 13 14  1  0  0  0  0
 13 30  1  0  0  0  0
 13 31  1  0  0  0  0
 14 15  1  0  0  0  0
 14 32  1  0  0  0  0
 14 33  1  0  0  0  0
 15 16  1  0  0  0  0
 15 22  1  0  0  0  0
 15 47  1  0  0  0  0
 16 17  1  0  0  0  0
 16 34  1  0  0  0  0
 16 35  1  0  0  0  0
 17 21  1  0  0  0  0
 17 18  1  0  0  0  0
 17 36  1  0  0  0  0
 18 19  1  0  0  0  0
 18 37  1  0  0  0  0
 18 38  1  0  0  0  0
 19 20  1  0  0  0  0
 19 39  1  0  0  0  0
 19 40  1  0  0  0  0
 20 21  1  0  0  0  0
 21 41  1  0  0  0  0
 21 42  1  0  0  0  0
 22 23  1  0  0  0  0
 22 43  1  0  0  0  0
 22 44  1  0  0  0  0
 23 45  1  0  0  0  0
 23 46  1  0  0  0  0
M  CHG  1  15   1
M  END
> <s_m_source_file>
AV-unprocessed.smi

> <i_m_source_file_index>
2351

> <i_lp_mmshare_version>
43012

> <i_f3d_flags>
0

> <s_epik_input>
RmMxW2NIXW5bY0hdW2NIXWMxW05IXUMoPU8pW05IXVtDSF0yW0NIMl1bQ0gyXU4oW0NIMl1bQ0gyXTIpW0NIMl1bQ0BASF0zW0NIMl1bQ0gyXU9bQ0gyXTM=

> <s_epik_cmdline>
J2VwaWtfcHl0aG9uJywgJy1waCcsICc3LjAnLCAnLXRuJywgJzgnLCAnLW1hJywgJzIwMCcsICctbWV0YWxfYmluZGluZycsICctaW1hZScsICc8aW5maWxlLm1hZT4nLCAnLW9tYWUnLCAnPG91dGZpbGUubWFlPic=

> <r_epik_Ionization_Penalty>
0.0102464

> <r_epik_Ionization_Penalty_Charging>
0.00747775

> <r_epik_Ionization_Penalty_Neutral>
0.00276864

> <r_epik_State_Penalty>
0.00558817

> <r_epik_Charging_Adjusted_Penalty>
0.0130659

> <i_epik_Tot_Q>
1

> <i_epik_Tot_abs_Q>
1

> <r_epik_Metal_State_Penalty>
-0

> <b_epik_Metal_Only>
0

> <s_lp_Force_Field>
OPLS_2005

> <r_lp_Energy>
39.2901

> <b_lp_Chiralities_Consistent>
1

> <s_lp_Variant>
AV-unprocessed.smi:2351-4

> <Gold.Version>
5.8.1

> <Gold.Id.Protein>
6NUR|6NUR_protein|mol2

> <Gold.PLP.Fitness>
44.3134

> <Gold.PLP.PLP>
-37.1281

> <Gold.PLP.part.hbond>
-2.0000

> <Gold.PLP.part.metal>
0.0000

> <Gold.PLP.part.buried>
-3.3761

> <Gold.PLP.part.nonpolar>
-31.0826

> <Gold.PLP.part.repulsive>
0.1383

> <Gold.PLP.ligand.clash>
0.0000

> <Gold.PLP.ligand.torsion>
0.9210

> <Gold.PLP.Chemscore.Hbond>
3.0000

> <Gold.PLP.Chemscore.CHOScore>
0.0000

> <Gold.PLP.Chemscore.Metal>
0.0000

> <Gold.Chemscore.Hbonds>
donor molecule, donor type, donor heavy atom, donor atom, acceptor molecule, acceptor atom, score
      L1  H    15    47       P1  7948  2.00
      P1  H  7997  8008       L1     1  1.00

> <Gold.PLP.Chemscore.Internal.Correction>
0.0272

> <Gold.Rescore>
     Score         DG    S(hbond)    S(metal)    S(lipo)     H(rot)  DE(clash)    DE(int)     intcor
     17.00     -19.54       1.95        0.00      96.21       1.45       0.28       2.26       ----

> <Gold.Chemscore.Fitness>
17.0025

> <Gold.Chemscore.DG>
-19.5366

> <Gold.Chemscore.ZeroCoef>
-5.4800

> <Gold.Chemscore.Hbond>
1.9484

> <Gold.Chemscore.Metal>
0.0000

> <Gold.Chemscore.Lipo>
96.2112

> <Gold.Chemscore.Internal_Hbond>
0.0000

> <Gold.Chemscore.DEClash>
0.2778

> <Gold.Chemscore.DEInternal>
2.2564

> <Gold.Chemscore.Rot>
1.4483

> <Gold.Chemscore.Internal.Correction>
   9.000000E+99

> <Gold.Chemscore.Hbonds>
donor molecule, donor type, donor heavy atom, donor atom, acceptor molecule, acceptor atom, score
      L1  H    15    47       P1  7948  0.99
      P1  H  7997  8008       L1     1  1.00

> <Gold.Chemscore.Hbond.Weighted>
-6.5077

> <Gold.Chemscore.Metal.Weighted>
-0.0000

> <Gold.Chemscore.Lipo.Weighted>
-11.2567

> <Gold.Chemscore.Internal_Hbond.Weighted>
0.0000

> <Gold.Chemscore.DEClash.Weighted>
0.2778

> <Gold.Chemscore.DEInternal.Weighted>
2.2564

> <Gold.Chemscore.Rot.Weighted>
3.7077

> <Gold.Chemscore.Internal.Correction.Weighted>
   9.000000E+99

> <Gold.Protein.RotatedTorsions>
[ 6907 6896 6895 6894 ] final -149.59 input  -60.11 | X-H torsion
[ 7974 7965 7964 7962 ] final  -22.63 input  175.53 | X-H torsion
[ 8008 7997 7996 7995 ] final  -32.10 input   59.86 | X-H torsion
[ 10167 10162 10161 10158 ] final  120.71 input  -65.29 | X-H torsion
[ 10718 10713 10712 10709 ] final   -2.07 input   66.30 | X-H torsion
[ 10763 10752 10751 10750 ] final  102.53 input  -60.55 | X-H torsion
[ 11005 11000 10999 10996 ] final  162.04 input  -57.11 | X-H torsion

> <Gold.Protein.ActiveResidues>
 VAL166  LYS551  ARG553  GLY616  TRP617  ASP618  TYR619  PRO620  LYS621  CYS622 
 ASP623  PHE694  ASN695  SER759  ASP760  ASP761  ALA762  ILE779  LEU786  VAL792 
 PHE793  MET794  SER795  GLU796  ALA797  LYS798  CYS799  TRP800  GLU811  SER814 

> <Gold.Protein.RotatedAtoms>
  151.1863  133.4694  159.2594 H   0  0  0  0  0  0  0  0  0  0  0  0  # atno 6907 bound_to 6896
  151.1208  135.0078  159.8548 H   0  0  0  0  0  0  0  0  0  0  0  0  # atno 6908 bound_to 6896
  152.5456  134.1775  159.8675 H   0  0  0  0  0  0  0  0  0  0  0  0  # atno 6909 bound_to 6896
  146.1664  140.4505  142.8550 H   0  0  0  0  0  0  0  0  0  0  0  0  # atno 7974 bound_to 7965
  154.4191  140.1746  156.1674 H   0  0  0  0  0  0  0  0  0  0  0  0  # atno 8008 bound_to 7997
  155.9789  140.3379  155.6620 H   0  0  0  0  0  0  0  0  0  0  0  0  # atno 8009 bound_to 7997
  155.6527  140.0692  157.2572 H   0  0  0  0  0  0  0  0  0  0  0  0  # atno 8010 bound_to 7997
  139.5965  144.7043  151.3164 H   0  0  0  0  0  0  0  0  0  0  0  0  # atno 10167 bound_to 10162
  156.7963  130.5378  149.5728 H   0  0  0  0  0  0  0  0  0  0  0  0  # atno 10718 bound_to 10713
  153.3408  135.4007  155.1570 H   0  0  0  0  0  0  0  0  0  0  0  0  # atno 10763 bound_to 10752
  154.8643  135.3633  154.5348 H   0  0  0  0  0  0  0  0  0  0  0  0  # atno 10764 bound_to 10752
  153.5793  135.7077  153.5530 H   0  0  0  0  0  0  0  0  0  0  0  0  # atno 10765 bound_to 10752
  140.2218  134.8190  157.3228 H   0  0  0  0  0  0  0  0  0  0  0  0  # atno 11005 bound_to 11000
  144.8099  140.6367  143.6422 LP  0  0  0  0  0  0  0  0  0  0  0  0  # atno 17320 bound_to 7965
  145.4455  139.1530  143.3947 LP  0  0  0  0  0  0  0  0  0  0  0  0  # atno 17321 bound_to 7965
  140.7216  143.7120  150.7762 LP  0  0  0  0  0  0  0  0  0  0  0  0  # atno 17342 bound_to 10162
  140.0688  143.5082  152.2590 LP  0  0  0  0  0  0  0  0  0  0  0  0  # atno 17343 bound_to 10162
  156.1128  130.6053  151.0074 LP  0  0  0  0  0  0  0  0  0  0  0  0  # atno 17370 bound_to 10713
  157.6576  131.0886  150.7912 LP  0  0  0  0  0  0  0  0  0  0  0  0  # atno 17371 bound_to 10713
  140.1841  134.4452  155.7754 LP  0  0  0  0  0  0  0  0  0  0  0  0  # atno 17394 bound_to 11000
  141.2222  133.6997  156.7918 LP  0  0  0  0  0  0  0  0  0  0  0  0  # atno 17395 bound_to 11000

$$$$
