AV-unprocessed.smi:1007|AV-procd|sdf|4402|dock7
  -GOLD-   22720 2343D 1   1.00000     0.00000
 Structure written by MMmdl.
 57 59  0  0  0  0  0  0  0  0  3 V2000
  148.3783  132.7154  158.4980 C   0  0  0  0  0  0  0  0  0  0  0  0
  147.3065  132.2792  157.6766 O   0  0  0  0  0  0  0  0  0  0  0  0
  147.4236  132.6647  156.3146 C   0  0  0  0  0  0  0  0  0  0  0  0
  147.3143  134.1922  156.1481 C   0  0  0  0  0  0  0  0  0  0  0  0
  147.5230  134.6792  154.7811 N   0  0  0  0  0  0  0  0  0  0  0  0
  147.3709  136.1299  154.6702 C   0  0  0  0  0  0  0  0  0  0  0  0
  148.5392  136.9149  155.3016 C   0  0  0  0  0  0  0  0  0  0  0  0
  149.8245  136.4965  154.6868 N   0  3  0  0  0  0  0  0  0  0  0  0
  150.9789  137.3034  155.1538 C   0  0  0  0  0  0  0  0  0  0  0  0
  150.6670  138.8132  155.2826 C   0  0  2  0  0  0  0  0  0  0  0  0
  150.3948  139.3013  153.9865 O   0  0  0  0  0  0  0  0  0  0  0  0
  151.8114  139.6756  155.8622 C   0  0  0  0  0  0  0  0  0  0  0  0
  151.3506  140.9573  156.4177 N   0  0  0  0  0  0  0  0  0  0  0  0
  150.5024  141.8746  155.8773 C   0  0  0  0  0  0  0  0  0  0  0  0
  150.3698  142.8905  156.7738 N   0  3  0  0  0  0  0  0  0  0  0  0
  151.1517  142.6245  157.8994 C   0  0  0  0  0  0  0  0  0  0  0  0
  151.3327  143.3486  159.0713 C   0  0  0  0  0  0  0  0  0  0  0  0
  152.1975  142.7974  160.0430 C   0  0  0  0  0  0  0  0  0  0  0  0
  152.4065  143.5569  161.3418 C   0  0  0  0  0  0  0  0  0  0  0  0
  152.8568  141.5617  159.8162 C   0  0  0  0  0  0  0  0  0  0  0  0
  153.7833  140.9769  160.8684 C   0  0  0  0  0  0  0  0  0  0  0  0
  152.6647  140.8433  158.6144 C   0  0  0  0  0  0  0  0  0  0  0  0
  151.7987  141.3937  157.6717 C   0  0  0  0  0  0  0  0  0  0  0  0
  150.0120  135.0277  154.8110 C   0  0  0  0  0  0  0  0  0  0  0  0
  148.8069  134.2938  154.1890 C   0  0  0  0  0  0  0  0  0  0  0  0
  148.2414  132.3281  159.5075 H   0  0  0  0  0  0  0  0  0  0  0  0
  148.4209  133.8022  158.5655 H   0  0  0  0  0  0  0  0  0  0  0  0
  149.3364  132.3488  158.1278 H   0  0  0  0  0  0  0  0  0  0  0  0
  148.3501  132.2740  155.8925 H   0  0  0  0  0  0  0  0  0  0  0  0
  146.6075  132.1869  155.7717 H   0  0  0  0  0  0  0  0  0  0  0  0
  146.3122  134.4817  156.4670 H   0  0  0  0  0  0  0  0  0  0  0  0
  147.9984  134.6874  156.8353 H   0  0  0  0  0  0  0  0  0  0  0  0
  147.2954  136.3976  153.6157 H   0  0  0  0  0  0  0  0  0  0  0  0
  146.4279  136.4406  155.1215 H   0  0  0  0  0  0  0  0  0  0  0  0
  148.3827  137.9810  155.1349 H   0  0  0  0  0  0  0  0  0  0  0  0
  148.5755  136.7682  156.3819 H   0  0  0  0  0  0  0  0  0  0  0  0
  151.3056  136.9364  156.1282 H   0  0  0  0  0  0  0  0  0  0  0  0
  151.8149  137.1410  154.4712 H   0  0  0  0  0  0  0  0  0  0  0  0
  149.7602  138.9720  155.8653 H   0  0  0  0  0  0  0  0  0  0  0  0
  149.7880  138.7155  153.5591 H   0  0  0  0  0  0  0  0  0  0  0  0
  152.3830  139.1277  156.6107 H   0  0  0  0  0  0  0  0  0  0  0  0
  152.5189  139.9247  155.0698 H   0  0  0  0  0  0  0  0  0  0  0  0
  150.0166  141.8062  154.9143 H   0  0  0  0  0  0  0  0  0  0  0  0
  150.8293  144.2905  159.2361 H   0  0  0  0  0  0  0  0  0  0  0  0
  153.4509  143.8502  161.4495 H   0  0  0  0  0  0  0  0  0  0  0  0
  152.1290  142.9397  162.1965 H   0  0  0  0  0  0  0  0  0  0  0  0
  151.8009  144.4631  161.3764 H   0  0  0  0  0  0  0  0  0  0  0  0
  154.2385  140.0466  160.5277 H   0  0  0  0  0  0  0  0  0  0  0  0
  153.2331  140.7626  161.7849 H   0  0  0  0  0  0  0  0  0  0  0  0
  154.5883  141.6742  161.1020 H   0  0  0  0  0  0  0  0  0  0  0  0
  153.1653  139.9005  158.4511 H   0  0  0  0  0  0  0  0  0  0  0  0
  150.9158  134.7165  154.2894 H   0  0  0  0  0  0  0  0  0  0  0  0
  150.1435  134.7518  155.8579 H   0  0  0  0  0  0  0  0  0  0  0  0
  148.9510  133.2160  154.2555 H   0  0  0  0  0  0  0  0  0  0  0  0
  148.7804  134.5146  153.1211 H   0  0  0  0  0  0  0  0  0  0  0  0
  149.7319  136.6918  153.7003 H   0  0  0  0  0  0  0  0  0  0  0  0
  149.7905  143.7072  156.6238 H   0  0  0  0  0  0  0  0  0  0  0  0
  1  2  1  0  0  0  0
  1 26  1  0  0  0  0
  1 27  1  0  0  0  0
  1 28  1  0  0  0  0
  2  3  1  0  0  0  0
  3  4  1  0  0  0  0
  3 29  1  0  0  0  0
  3 30  1  0  0  0  0
  4  5  1  0  0  0  0
  4 31  1  0  0  0  0
  4 32  1  0  0  0  0
  5 25  1  0  0  0  0
  5  6  1  0  0  0  0
  6  7  1  0  0  0  0
  6 33  1  0  0  0  0
  6 34  1  0  0  0  0
  7  8  1  0  0  0  0
  7 35  1  0  0  0  0
  7 36  1  0  0  0  0
  8  9  1  0  0  0  0
  8 24  1  0  0  0  0
  8 56  1  0  0  0  0
  9 10  1  0  0  0  0
  9 37  1  0  0  0  0
  9 38  1  0  0  0  0
 10 11  1  0  0  0  0
 10 12  1  0  0  0  0
 10 39  1  0  0  0  0
 11 40  1  0  0  0  0
 12 13  1  0  0  0  0
 12 41  1  0  0  0  0
 12 42  1  0  0  0  0
 13 23  1  0  0  0  0
 13 14  1  0  0  0  0
 14 15  2  0  0  0  0
 14 43  1  0  0  0  0
 15 16  1  0  0  0  0
 15 57  1  0  0  0  0
 16 23  2  0  0  0  0
 16 17  1  0  0  0  0
 17 18  2  0  0  0  0
 17 44  1  0  0  0  0
 18 19  1  0  0  0  0
 18 20  1  0  0  0  0
 19 45  1  0  0  0  0
 19 46  1  0  0  0  0
 19 47  1  0  0  0  0
 20 21  1  0  0  0  0
 20 22  2  0  0  0  0
 21 48  1  0  0  0  0
 21 49  1  0  0  0  0
 21 50  1  0  0  0  0
 22 23  1  0  0  0  0
 22 51  1  0  0  0  0
 24 25  1  0  0  0  0
 24 52  1  0  0  0  0
 24 53  1  0  0  0  0
 25 54  1  0  0  0  0
 25 55  1  0  0  0  0
M  CHG  1   8   1
M  CHG  1  15   1
M  END
> <s_m_source_file>
AV-unprocessed.smi

> <i_m_source_file_index>
1007

> <i_lp_mmshare_version>
43012

> <i_f3d_flags>
0

> <s_epik_input>
W0NIM11PW0NIMl1bQ0gyXU4xW0NIMl1bQ0gyXU4oW0NIMl1bQ0gyXTEpW0NIMl1bQ0BIXShbT0hdKVtDSDJdbihbY0hdbjIpYyhjMjMpW2NIXWMoW0NIM10pYyhbY0hdMylbQ0gzXQ==

> <s_epik_cmdline>
J2VwaWtfcHl0aG9uJywgJy1waCcsICc3LjAnLCAnLXRuJywgJzgnLCAnLW1hJywgJzIwMCcsICctbWV0YWxfYmluZGluZycsICctaW1hZScsICc8aW5maWxlLm1hZT4nLCAnLW9tYWUnLCAnPG91dGZpbGUubWFlPic=

> <r_epik_Ionization_Penalty>
1.19231

> <r_epik_Ionization_Penalty_Charging>
1.17974

> <r_epik_Ionization_Penalty_Neutral>
0.0125676

> <r_epik_State_Penalty>
1.24499

> <r_epik_Charging_Adjusted_Penalty>
2.42472

> <i_epik_Tot_Q>
2

> <i_epik_Tot_abs_Q>
2

> <r_epik_Metal_State_Penalty>
5.24866

> <b_epik_Metal_Only>
0

> <s_lp_Force_Field>
OPLS_2005

> <r_lp_Energy>
43.594

> <b_lp_Chiralities_Consistent>
1

> <s_lp_Variant>
AV-unprocessed.smi:1007-5

> <Gold.Version>
5.8.1

> <Gold.Id.Protein>
6NUR|6NUR_protein|mol2

> <Gold.PLP.Fitness>
56.6521

> <Gold.PLP.PLP>
-42.4615

> <Gold.PLP.part.hbond>
-4.0000

> <Gold.PLP.part.metal>
0.0000

> <Gold.PLP.part.buried>
-3.0530

> <Gold.PLP.part.nonpolar>
-34.8914

> <Gold.PLP.part.repulsive>
0.1538

> <Gold.PLP.ligand.clash>
0.0000

> <Gold.PLP.ligand.torsion>
0.5096

> <Gold.PLP.Chemscore.Hbond>
4.9913

> <Gold.PLP.Chemscore.CHOScore>
0.0000

> <Gold.PLP.Chemscore.Metal>
0.0000

> <Gold.Chemscore.Hbonds>
donor molecule, donor type, donor heavy atom, donor atom, acceptor molecule, acceptor atom, score
      L1  H     8    56       P1  7948  2.00
      L1  H    15    57       P1  8028  2.00
      P1  H  7989  7998       L1    11  0.96

> <Gold.PLP.Chemscore.Internal.Correction>
0.2359

> <Gold.Rescore>
     Score         DG    S(hbond)    S(metal)    S(lipo)     H(rot)  DE(clash)    DE(int)     intcor
     19.21     -20.12       2.45        0.00     113.05       2.64       0.46       0.45       ----

> <Gold.Chemscore.Fitness>
19.2089

> <Gold.Chemscore.DG>
-20.1202

> <Gold.Chemscore.ZeroCoef>
-5.4800

> <Gold.Chemscore.Hbond>
2.4491

> <Gold.Chemscore.Metal>
0.0000

> <Gold.Chemscore.Lipo>
113.0493

> <Gold.Chemscore.Internal_Hbond>
0.0000

> <Gold.Chemscore.DEClash>
0.4587

> <Gold.Chemscore.DEInternal>
0.4526

> <Gold.Chemscore.Rot>
2.6432

> <Gold.Chemscore.Internal.Correction>
   9.000000E+99

> <Gold.Chemscore.Hbonds>
donor molecule, donor type, donor heavy atom, donor atom, acceptor molecule, acceptor atom, score
      L1  H     8    56       P1  7948  0.50
      L1  H    15    57       P1  8028  0.97
      P1  H  7989  7998       L1    11  0.73

> <Gold.Chemscore.Hbond.Weighted>
-8.1799

> <Gold.Chemscore.Metal.Weighted>
-0.0000

> <Gold.Chemscore.Lipo.Weighted>
-13.2268

> <Gold.Chemscore.Internal_Hbond.Weighted>
0.0000

> <Gold.Chemscore.DEClash.Weighted>
0.4587

> <Gold.Chemscore.DEInternal.Weighted>
0.4526

> <Gold.Chemscore.Rot.Weighted>
6.7665

> <Gold.Chemscore.Internal.Correction.Weighted>
   9.000000E+99

> <Gold.Protein.RotatedTorsions>
[ 6907 6896 6895 6894 ] final  144.84 input  -60.11 | X-H torsion
[ 7974 7965 7964 7962 ] final -145.47 input  175.53 | X-H torsion
[ 8008 7997 7996 7995 ] final  127.65 input   59.86 | X-H torsion
[ 10167 10162 10161 10158 ] final -179.98 input  -65.29 | X-H torsion
[ 10718 10713 10712 10709 ] final  -25.73 input   66.30 | X-H torsion
[ 10763 10752 10751 10750 ] final  -66.70 input  -60.55 | X-H torsion
[ 11005 11000 10999 10996 ] final   57.00 input  -57.11 | X-H torsion

> <Gold.Protein.ActiveResidues>
 VAL166  LYS551  ARG553  GLY616  TRP617  ASP618  TYR619  PRO620  LYS621  CYS622 
 ASP623  PHE694  ASN695  SER759  ASP760  ASP761  ALA762  ILE779  LEU786  VAL792 
 PHE793  MET794  SER795  GLU796  ALA797  LYS798  CYS799  TRP800  GLU811  SER814 

> <Gold.Protein.RotatedAtoms>
  152.1885  133.4756  159.4995 H   0  0  0  0  0  0  0  0  0  0  0  0  # atno 6907 bound_to 6896
  150.6947  134.1742  159.4233 H   0  0  0  0  0  0  0  0  0  0  0  0  # atno 6908 bound_to 6896
  151.9656  135.0102  160.0600 H   0  0  0  0  0  0  0  0  0  0  0  0  # atno 6909 bound_to 6896
  144.8225  140.5579  143.5569 H   0  0  0  0  0  0  0  0  0  0  0  0  # atno 7974 bound_to 7965
  156.2896  140.2663  156.2308 H   0  0  0  0  0  0  0  0  0  0  0  0  # atno 8008 bound_to 7997
  155.0074  140.0387  157.2403 H   0  0  0  0  0  0  0  0  0  0  0  0  # atno 8009 bound_to 7997
  154.7548  140.2749  155.6268 H   0  0  0  0  0  0  0  0  0  0  0  0  # atno 8010 bound_to 7997
  139.5362  144.2491  152.0799 H   0  0  0  0  0  0  0  0  0  0  0  0  # atno 10167 bound_to 10162
  156.4605  130.4503  149.6931 H   0  0  0  0  0  0  0  0  0  0  0  0  # atno 10718 bound_to 10713
  154.3637  135.6110  153.5704 H   0  0  0  0  0  0  0  0  0  0  0  0  # atno 10763 bound_to 10752
  152.9792  135.5821  154.4603 H   0  0  0  0  0  0  0  0  0  0  0  0  # atno 10764 bound_to 10752
  154.4345  135.2848  155.1867 H   0  0  0  0  0  0  0  0  0  0  0  0  # atno 10765 bound_to 10752
  140.0486  134.5770  155.9292 H   0  0  0  0  0  0  0  0  0  0  0  0  # atno 11005 bound_to 11000
  145.5073  139.1480  143.3624 LP  0  0  0  0  0  0  0  0  0  0  0  0  # atno 17320 bound_to 7965
  146.2530  140.5213  142.8885 LP  0  0  0  0  0  0  0  0  0  0  0  0  # atno 17321 bound_to 7965
  140.1962  144.4703  150.6454 LP  0  0  0  0  0  0  0  0  0  0  0  0  # atno 17342 bound_to 10162
  140.6569  143.2240  151.5947 LP  0  0  0  0  0  0  0  0  0  0  0  0  # atno 17343 bound_to 10162
  156.3721  130.7536  151.2520 LP  0  0  0  0  0  0  0  0  0  0  0  0  # atno 17370 bound_to 10713
  157.7498  131.0320  150.4207 LP  0  0  0  0  0  0  0  0  0  0  0  0  # atno 17371 bound_to 10713
  141.1919  133.6573  156.5478 LP  0  0  0  0  0  0  0  0  0  0  0  0  # atno 17394 bound_to 11000
  140.3954  134.7404  157.4747 LP  0  0  0  0  0  0  0  0  0  0  0  0  # atno 17395 bound_to 11000

$$$$
