AV-unprocessed.smi:1766|AV-procd|sdf|7136|dock1
  -GOLD-   22720 8373D 1   1.00000     0.00000
 Structure written by MMmdl.
 39 41  0  0  0  0  0  0  0  0  1 V2000
  149.0376  139.7243  153.9601 N   0  0  0  0  0  0  0  0  0  0  0  0
  149.9979  139.5479  154.8717 C   0  0  0  0  0  0  0  0  0  0  0  0
  151.1745  139.3815  154.5580 O   0  0  0  0  0  0  0  0  0  0  0  0
  149.5765  139.5657  156.3457 C   0  0  0  0  0  0  0  0  0  0  0  0
  150.3517  140.6399  157.0635 C   0  0  0  0  0  0  0  0  0  0  0  0
  150.4317  141.8837  156.5832 N   0  0  0  0  0  0  0  0  0  0  0  0
  151.2063  142.5302  157.5248 C   0  0  0  0  0  0  0  0  0  0  0  0
  151.6346  143.8751  157.5938 C   0  0  0  0  0  0  0  0  0  0  0  0
  152.4306  144.3164  158.6708 C   0  0  0  0  0  0  0  0  0  0  0  0
  152.8101  143.4204  159.6910 C   0  0  0  0  0  0  0  0  0  0  0  0
  152.3966  142.0756  159.6388 C   0  0  0  0  0  0  0  0  0  0  0  0
  151.5995  141.6401  158.5625 C   0  0  0  0  0  0  0  0  0  0  0  0
  151.0301  140.4157  158.2207 N   0  0  0  0  0  0  0  0  0  0  0  0
  151.1594  139.1780  158.9810 C   0  0  0  0  0  0  0  0  0  0  0  0
  152.5510  138.5310  158.8333 C   0  0  1  0  0  0  0  0  0  0  0  0
  153.2386  139.1945  157.7925 O   0  0  0  0  0  0  0  0  0  0  0  0
  153.3329  138.5398  160.1400 C   0  0  0  0  0  0  0  0  0  0  0  0
  154.0141  139.7084  160.5439 C   0  0  0  0  0  0  0  0  0  0  0  0
  154.7670  139.7164  161.7338 C   0  0  0  0  0  0  0  0  0  0  0  0
  154.8423  138.5563  162.5280 C   0  0  0  0  0  0  0  0  0  0  0  0
  155.5678  138.5635  163.6712 F   0  0  0  0  0  0  0  0  0  0  0  0
  154.1643  137.3879  162.1316 C   0  0  0  0  0  0  0  0  0  0  0  0
  153.4125  137.3788  160.9407 C   0  0  0  0  0  0  0  0  0  0  0  0
  149.2710  139.7110  152.9778 H   0  0  0  0  0  0  0  0  0  0  0  0
  148.0813  139.8617  154.2537 H   0  0  0  0  0  0  0  0  0  0  0  0
  148.5021  139.7276  156.4079 H   0  0  0  0  0  0  0  0  0  0  0  0
  149.7807  138.6029  156.8161 H   0  0  0  0  0  0  0  0  0  0  0  0
  151.3477  144.5691  156.8177 H   0  0  0  0  0  0  0  0  0  0  0  0
  152.7510  145.3468  158.7148 H   0  0  0  0  0  0  0  0  0  0  0  0
  153.4179  143.7663  160.5142 H   0  0  0  0  0  0  0  0  0  0  0  0
  152.6842  141.3897  160.4215 H   0  0  0  0  0  0  0  0  0  0  0  0
  150.9353  139.3842  160.0275 H   0  0  0  0  0  0  0  0  0  0  0  0
  150.3866  138.4831  158.6503 H   0  0  0  0  0  0  0  0  0  0  0  0
  152.4345  137.4991  158.5057 H   0  0  0  0  0  0  0  0  0  0  0  0
  152.6679  139.2408  157.0406 H   0  0  0  0  0  0  0  0  0  0  0  0
  153.9714  140.6003  159.9361 H   0  0  0  0  0  0  0  0  0  0  0  0
  155.2895  140.6123  162.0352 H   0  0  0  0  0  0  0  0  0  0  0  0
  154.2240  136.4968  162.7389 H   0  0  0  0  0  0  0  0  0  0  0  0
  152.9051  136.4741  160.6389 H   0  0  0  0  0  0  0  0  0  0  0  0
  1  2  1  0  0  0  0
  1 24  1  0  0  0  0
  1 25  1  0  0  0  0
  2  3  2  0  0  0  0
  2  4  1  0  0  0  0
  4  5  1  0  0  0  0
  4 26  1  0  0  0  0
  4 27  1  0  0  0  0
  5 13  1  0  0  0  0
  5  6  2  0  0  0  0
  6  7  1  0  0  0  0
  7 12  2  0  0  0  0
  7  8  1  0  0  0  0
  8  9  2  0  0  0  0
  8 28  1  0  0  0  0
  9 10  1  0  0  0  0
  9 29  1  0  0  0  0
 10 11  2  0  0  0  0
 10 30  1  0  0  0  0
 11 12  1  0  0  0  0
 11 31  1  0  0  0  0
 12 13  1  0  0  0  0
 13 14  1  0  0  0  0
 14 15  1  0  0  0  0
 14 32  1  0  0  0  0
 14 33  1  0  0  0  0
 15 16  1  0  0  0  0
 15 17  1  0  0  0  0
 15 34  1  0  0  0  0
 16 35  1  0  0  0  0
 17 23  1  0  0  0  0
 17 18  2  0  0  0  0
 18 19  1  0  0  0  0
 18 36  1  0  0  0  0
 19 20  2  0  0  0  0
 19 37  1  0  0  0  0
 20 21  1  0  0  0  0
 20 22  1  0  0  0  0
 22 23  2  0  0  0  0
 22 38  1  0  0  0  0
 23 39  1  0  0  0  0
M  END
> <s_m_source_file>
AV-unprocessed.smi

> <i_m_source_file_index>
1766

> <i_lp_mmshare_version>
43012

> <i_f3d_flags>
0

> <s_epik_input>
W2NIXTFbY0hdW2NIXVtjSF1jKGMxMiluKGMobjIpW0NIMl1DKD1PKVtOSDJdKVtDSDJdW0NASF0oW09IXSljM1tjSF1bY0hdYyhGKVtjSF1bY0hdMw==

> <s_epik_cmdline>
J2VwaWtfcHl0aG9uJywgJy1waCcsICc3LjAnLCAnLXRuJywgJzgnLCAnLW1hJywgJzIwMCcsICctbWV0YWxfYmluZGluZycsICctaW1hZScsICc8aW5maWxlLm1hZT4nLCAnLW9tYWUnLCAnPG91dGZpbGUubWFlPic=

> <r_epik_Ionization_Penalty>
0.0366901

> <r_epik_Ionization_Penalty_Charging>
0

> <r_epik_Ionization_Penalty_Neutral>
0.0366901

> <r_epik_State_Penalty>
0.0306642

> <r_epik_Charging_Adjusted_Penalty>
0.0306642

> <i_epik_Tot_Q>
0

> <i_epik_Tot_abs_Q>
0

> <r_epik_Metal_State_Penalty>
0.028853

> <b_epik_Metal_Only>
0

> <s_lp_Force_Field>
OPLS_2005

> <r_lp_Energy>
12.7053

> <b_lp_Chiralities_Consistent>
1

> <s_lp_Variant>
AV-unprocessed.smi:1766-2

> <Gold.Version>
5.8.1

> <Gold.Id.Protein>
6NUR|6NUR_protein|mol2

> <Gold.PLP.Fitness>
52.3490

> <Gold.PLP.PLP>
-46.2821

> <Gold.PLP.part.hbond>
-3.0000

> <Gold.PLP.part.metal>
0.0000

> <Gold.PLP.part.buried>
-6.4524

> <Gold.PLP.part.nonpolar>
-38.4369

> <Gold.PLP.part.repulsive>
0.3796

> <Gold.PLP.ligand.clash>
0.0000

> <Gold.PLP.ligand.torsion>
1.5050

> <Gold.PLP.Chemscore.Hbond>
3.0000

> <Gold.PLP.Chemscore.CHOScore>
0.0000

> <Gold.PLP.Chemscore.Metal>
0.0000

> <Gold.Chemscore.Hbonds>
donor molecule, donor type, donor heavy atom, donor atom, acceptor molecule, acceptor atom, score
      L1  H     1    24       P1  7957  1.00
      P1  H  7989  7998       L1     3  1.00
      P1  H  7997  8008       L1    16  0.90

> <Gold.PLP.Chemscore.Internal.Correction>
0.0770

> <Gold.Rescore>
     Score         DG    S(hbond)    S(metal)    S(lipo)     H(rot)  DE(clash)    DE(int)     intcor
     18.92     -20.62       2.90        0.00     112.03       2.99       0.03       1.67       ----

> <Gold.Chemscore.Fitness>
18.9194

> <Gold.Chemscore.DG>
-20.6187

> <Gold.Chemscore.ZeroCoef>
-5.4800

> <Gold.Chemscore.Hbond>
2.8970

> <Gold.Chemscore.Metal>
0.0000

> <Gold.Chemscore.Lipo>
112.0316

> <Gold.Chemscore.Internal_Hbond>
0.0000

> <Gold.Chemscore.DEClash>
0.0285

> <Gold.Chemscore.DEInternal>
1.6708

> <Gold.Chemscore.Rot>
2.9864

> <Gold.Chemscore.Internal.Correction>
   9.000000E+99

> <Gold.Chemscore.Hbonds>
donor molecule, donor type, donor heavy atom, donor atom, acceptor molecule, acceptor atom, score
      L1  H     1    24       P1  7957  1.00
      P1  H  7989  7998       L1     3  0.55
      P1  H  7997  8008       L1    16  0.18

> <Gold.Chemscore.Hbond.Weighted>
-9.6760

> <Gold.Chemscore.Metal.Weighted>
-0.0000

> <Gold.Chemscore.Lipo.Weighted>
-13.1077

> <Gold.Chemscore.Internal_Hbond.Weighted>
0.0000

> <Gold.Chemscore.DEClash.Weighted>
0.0285

> <Gold.Chemscore.DEInternal.Weighted>
1.6708

> <Gold.Chemscore.Rot.Weighted>
7.6451

> <Gold.Chemscore.Internal.Correction.Weighted>
   9.000000E+99

> <Gold.Protein.RotatedTorsions>
[ 6907 6896 6895 6894 ] final   34.79 input  -60.11 | X-H torsion
[ 7974 7965 7964 7962 ] final  130.96 input  175.53 | X-H torsion
[ 8008 7997 7996 7995 ] final  -91.17 input   59.86 | X-H torsion
[ 10167 10162 10161 10158 ] final   15.49 input  -65.29 | X-H torsion
[ 10718 10713 10712 10709 ] final -118.91 input   66.30 | X-H torsion
[ 10763 10752 10751 10750 ] final  -97.72 input  -60.55 | X-H torsion
[ 11005 11000 10999 10996 ] final  169.27 input  -57.11 | X-H torsion

> <Gold.Protein.ActiveResidues>
 VAL166  LYS551  ARG553  GLY616  TRP617  ASP618  TYR619  PRO620  LYS621  CYS622 
 ASP623  PHE694  ASN695  SER759  ASP760  ASP761  ALA762  ILE779  LEU786  VAL792 
 PHE793  MET794  SER795  GLU796  ALA797  LYS798  CYS799  TRP800  GLU811  SER814 

> <Gold.Protein.RotatedAtoms>
  152.1073  134.9299  160.0567 H   0  0  0  0  0  0  0  0  0  0  0  0  # atno 6907 bound_to 6896
  152.0491  133.4006  159.4377 H   0  0  0  0  0  0  0  0  0  0  0  0  # atno 6908 bound_to 6896
  150.6842  134.3249  159.4846 H   0  0  0  0  0  0  0  0  0  0  0  0  # atno 6909 bound_to 6896
  145.0124  139.4208  143.5238 H   0  0  0  0  0  0  0  0  0  0  0  0  # atno 7974 bound_to 7965
  154.7075  140.0522  157.0518 H   0  0  0  0  0  0  0  0  0  0  0  0  # atno 8008 bound_to 7997
  155.0601  140.3188  155.4644 H   0  0  0  0  0  0  0  0  0  0  0  0  # atno 8009 bound_to 7997
  156.2779  140.2100  156.5727 H   0  0  0  0  0  0  0  0  0  0  0  0  # atno 8010 bound_to 7997
  140.5863  143.8882  150.6834 H   0  0  0  0  0  0  0  0  0  0  0  0  # atno 10167 bound_to 10162
  156.1142  130.6272  150.9351 H   0  0  0  0  0  0  0  0  0  0  0  0  # atno 10718 bound_to 10713
  154.7353  135.5036  153.9031 H   0  0  0  0  0  0  0  0  0  0  0  0  # atno 10763 bound_to 10752
  153.0989  135.6680  153.9719 H   0  0  0  0  0  0  0  0  0  0  0  0  # atno 10764 bound_to 10752
  153.9510  135.3057  155.3418 H   0  0  0  0  0  0  0  0  0  0  0  0  # atno 10765 bound_to 10752
  140.2960  134.7634  157.3877 H   0  0  0  0  0  0  0  0  0  0  0  0  # atno 11005 bound_to 11000
  146.3472  139.9576  142.8721 LP  0  0  0  0  0  0  0  0  0  0  0  0  # atno 17320 bound_to 7965
  145.2005  140.9852  143.4158 LP  0  0  0  0  0  0  0  0  0  0  0  0  # atno 17321 bound_to 7965
  140.2394  143.3675  152.1499 LP  0  0  0  0  0  0  0  0  0  0  0  0  # atno 17342 bound_to 10162
  139.5200  144.7027  151.5447 LP  0  0  0  0  0  0  0  0  0  0  0  0  # atno 17343 bound_to 10162
  157.6324  131.0919  150.8415 LP  0  0  0  0  0  0  0  0  0  0  0  0  # atno 17370 bound_to 10713
  156.8521  130.5084  149.5311 LP  0  0  0  0  0  0  0  0  0  0  0  0  # atno 17371 bound_to 10713
  140.1152  134.5292  155.8231 LP  0  0  0  0  0  0  0  0  0  0  0  0  # atno 17394 bound_to 11000
  141.2137  133.6738  156.6764 LP  0  0  0  0  0  0  0  0  0  0  0  0  # atno 17395 bound_to 11000

$$$$
