AV-unprocessed.smi:2520|AV-procd|sdf|9909|dock9
  -GOLD-   2272013543D 1   1.00000     0.00000
 Structure written by MMmdl.
 41 44  0  0  0  0  0  0  0  0  1 V2000
  147.9735  139.0812  158.4804 O   0  0  0  0  0  0  0  0  0  0  0  0
  148.9428  138.3666  158.2313 C   0  0  0  0  0  0  0  0  0  0  0  0
  149.1187  137.1862  158.8628 N   0  0  0  0  0  0  0  0  0  0  0  0
  148.3402  136.5239  159.8573 C   0  0  0  0  0  0  0  0  0  0  0  0
  148.2695  135.1215  159.7148 C   0  0  0  0  0  0  0  0  0  0  0  0
  147.5250  134.3890  160.6551 C   0  0  0  0  0  0  0  0  0  0  0  0
  146.8980  135.1123  161.6838 C   0  0  0  0  0  0  0  0  0  0  0  0
  146.9933  136.4551  161.7865 N   0  0  0  0  0  0  0  0  0  0  0  0
  147.7036  137.1437  160.8871 N   0  0  0  0  0  0  0  0  0  0  0  0
  149.8806  138.6998  157.3323 N   0  0  0  0  0  0  0  0  0  0  0  0
  149.8927  139.9070  156.5073 C   0  0  2  0  0  0  0  0  0  0  0  0
  150.7118  139.7340  155.2075 C   0  0  2  0  0  0  0  0  0  0  0  0
  151.1824  138.3875  154.7114 C   0  0  0  0  0  0  0  0  0  0  0  0
  152.6219  138.3173  155.2297 C   0  0  0  0  0  0  0  0  0  0  0  0
  152.6741  139.2610  156.2975 O   0  0  0  0  0  0  0  0  0  0  0  0
  151.8819  140.3870  155.9265 C   0  0  2  0  0  0  0  0  0  0  0  0
  150.9296  140.9402  157.0072 C   0  0  0  0  0  0  0  0  0  0  0  0
  151.4115  140.9133  158.4583 C   0  0  0  0  0  0  0  0  0  0  0  0
  152.1310  142.2391  158.7128 C   0  0  0  0  0  0  0  0  0  0  0  0
  151.5492  143.2236  157.6939 C   0  0  0  0  0  0  0  0  0  0  0  0
  150.5574  142.4138  156.8527 C   0  0  0  0  0  0  0  0  0  0  0  0
  149.9616  136.6965  158.6005 H   0  0  0  0  0  0  0  0  0  0  0  0
  148.7727  134.6155  158.9035 H   0  0  0  0  0  0  0  0  0  0  0  0
  147.4383  133.3145  160.5902 H   0  0  0  0  0  0  0  0  0  0  0  0
  146.3115  134.6072  162.4368 H   0  0  0  0  0  0  0  0  0  0  0  0
  150.6468  138.0555  157.1945 H   0  0  0  0  0  0  0  0  0  0  0  0
  148.9091  140.3441  156.3280 H   0  0  0  0  0  0  0  0  0  0  0  0
  150.3265  140.3827  154.4194 H   0  0  0  0  0  0  0  0  0  0  0  0
  150.5798  137.5694  155.1058 H   0  0  0  0  0  0  0  0  0  0  0  0
  151.1532  138.3156  153.6239 H   0  0  0  0  0  0  0  0  0  0  0  0
  152.9001  137.3182  155.5661 H   0  0  0  0  0  0  0  0  0  0  0  0
  153.3229  138.6241  154.4523 H   0  0  0  0  0  0  0  0  0  0  0  0
  152.4199  141.1244  155.3288 H   0  0  0  0  0  0  0  0  0  0  0  0
  150.5565  140.8335  159.1312 H   0  0  0  0  0  0  0  0  0  0  0  0
  152.0594  140.0633  158.6750 H   0  0  0  0  0  0  0  0  0  0  0  0
  151.9966  142.5794  159.7401 H   0  0  0  0  0  0  0  0  0  0  0  0
  153.2020  142.1221  158.5418 H   0  0  0  0  0  0  0  0  0  0  0  0
  151.0599  144.0697  158.1775 H   0  0  0  0  0  0  0  0  0  0  0  0
  152.3463  143.6209  157.0644 H   0  0  0  0  0  0  0  0  0  0  0  0
  150.5598  142.7396  155.8119 H   0  0  0  0  0  0  0  0  0  0  0  0
  149.5475  142.5814  157.2300 H   0  0  0  0  0  0  0  0  0  0  0  0
  1  2  2  0  0  0  0
  2  3  1  0  0  0  0
  2 10  1  0  0  0  0
  3  4  1  0  0  0  0
  3 22  1  0  0  0  0
  4  9  1  0  0  0  0
  4  5  2  0  0  0  0
  5  6  1  0  0  0  0
  5 23  1  0  0  0  0
  6  7  2  0  0  0  0
  6 24  1  0  0  0  0
  7  8  1  0  0  0  0
  7 25  1  0  0  0  0
  8  9  2  0  0  0  0
 10 11  1  0  0  0  0
 10 26  1  0  0  0  0
 11 17  1  0  0  0  0
 11 12  1  0  0  0  0
 11 27  1  0  0  0  0
 12 16  1  0  0  0  0
 12 13  1  0  0  0  0
 12 28  1  0  0  0  0
 13 14  1  0  0  0  0
 13 29  1  0  0  0  0
 13 30  1  0  0  0  0
 14 15  1  0  0  0  0
 14 31  1  0  0  0  0
 14 32  1  0  0  0  0
 15 16  1  0  0  0  0
 16 17  1  0  0  0  0
 16 33  1  0  0  0  0
 17 21  1  0  0  0  0
 17 18  1  0  0  0  0
 18 19  1  0  0  0  0
 18 34  1  0  0  0  0
 18 35  1  0  0  0  0
 19 20  1  0  0  0  0
 19 36  1  0  0  0  0
 19 37  1  0  0  0  0
 20 21  1  0  0  0  0
 20 38  1  0  0  0  0
 20 39  1  0  0  0  0
 21 40  1  0  0  0  0
 21 41  1  0  0  0  0
M  END
> <s_m_source_file>
AV-unprocessed.smi

> <i_m_source_file_index>
2520

> <i_lp_mmshare_version>
43012

> <i_f3d_flags>
0

> <s_epik_input>
bjFuW2NIXVtjSF1bY0hdYzFbTkhdQyg9TylbTkhdW0NAQEhdMltDQEBIXShbQ0gyXVtDSDJdTzMpW0NASF0zQzI0W0NIMl1bQ0gyXVtDSDJdW0NIMl00

> <s_epik_cmdline>
J2VwaWtfcHl0aG9uJywgJy1waCcsICc3LjAnLCAnLXRuJywgJzgnLCAnLW1hJywgJzIwMCcsICctbWV0YWxfYmluZGluZycsICctaW1hZScsICc8aW5maWxlLm1hZT4nLCAnLW9tYWUnLCAnPG91dGZpbGUubWFlPic=

> <r_lp_tautomer_probability>
1

> <r_epik_Ionization_Penalty>
0.00552561

> <r_epik_Ionization_Penalty_Charging>
0

> <r_epik_Ionization_Penalty_Neutral>
0.00552561

> <r_epik_State_Penalty>
-0

> <r_epik_Charging_Adjusted_Penalty>
0

> <i_epik_Tot_Q>
0

> <i_epik_Tot_abs_Q>
0

> <r_epik_Metal_State_Penalty>
-0

> <b_epik_Metal_Only>
0

> <s_lp_Force_Field>
OPLS_2005

> <r_lp_Energy>
62.4196

> <b_lp_Chiralities_Consistent>
1

> <s_lp_Variant>
AV-unprocessed.smi:2520-3

> <Gold.Version>
5.8.1

> <Gold.Id.Protein>
6NUR|6NUR_protein|mol2

> <Gold.PLP.Fitness>
42.3947

> <Gold.PLP.PLP>
-34.9603

> <Gold.PLP.part.hbond>
-4.0000

> <Gold.PLP.part.metal>
0.0000

> <Gold.PLP.part.buried>
-3.4854

> <Gold.PLP.part.nonpolar>
-27.5315

> <Gold.PLP.part.repulsive>
0.2191

> <Gold.PLP.ligand.clash>
0.0000

> <Gold.PLP.ligand.torsion>
0.5479

> <Gold.PLP.Chemscore.Hbond>
2.7760

> <Gold.PLP.Chemscore.CHOScore>
0.0000

> <Gold.PLP.Chemscore.Metal>
0.0000

> <Gold.Chemscore.Hbonds>
donor molecule, donor type, donor heavy atom, donor atom, acceptor molecule, acceptor atom, score
      P1  H  6931  6943       L1     9  0.88
      P1  H  6934  6947       L1     9  0.91
      P1  H  7997  8008       L1    15  1.00

> <Gold.PLP.Chemscore.Internal.Correction>
0.2021

> <Gold.Rescore>
     Score         DG    S(hbond)    S(metal)    S(lipo)     H(rot)  DE(clash)    DE(int)     intcor
     18.33     -18.90       1.60        0.00      90.92       1.00       0.02       0.55       ----

> <Gold.Chemscore.Fitness>
18.3344

> <Gold.Chemscore.DG>
-18.9047

> <Gold.Chemscore.ZeroCoef>
-5.4800

> <Gold.Chemscore.Hbond>
1.6008

> <Gold.Chemscore.Metal>
0.0000

> <Gold.Chemscore.Lipo>
90.9239

> <Gold.Chemscore.Internal_Hbond>
0.0000

> <Gold.Chemscore.DEClash>
0.0237

> <Gold.Chemscore.DEInternal>
0.5466

> <Gold.Chemscore.Rot>
1.0000

> <Gold.Chemscore.Internal.Correction>
   9.000000E+99

> <Gold.Chemscore.Hbonds>
donor molecule, donor type, donor heavy atom, donor atom, acceptor molecule, acceptor atom, score
      P1  H  6931  6943       L1     9  0.38
      P1  H  6934  6947       L1     9  0.65
      P1  H  7997  8008       L1    15  0.22

> <Gold.Chemscore.Hbond.Weighted>
-5.3466

> <Gold.Chemscore.Metal.Weighted>
-0.0000

> <Gold.Chemscore.Lipo.Weighted>
-10.6381

> <Gold.Chemscore.Internal_Hbond.Weighted>
0.0000

> <Gold.Chemscore.DEClash.Weighted>
0.0237

> <Gold.Chemscore.DEInternal.Weighted>
0.5466

> <Gold.Chemscore.Rot.Weighted>
2.5600

> <Gold.Chemscore.Internal.Correction.Weighted>
   9.000000E+99

> <Gold.Protein.RotatedTorsions>
[ 6907 6896 6895 6894 ] final  -58.43 input  -60.11 | X-H torsion
[ 7974 7965 7964 7962 ] final   44.08 input  175.53 | X-H torsion
[ 8008 7997 7996 7995 ] final  -51.02 input   59.86 | X-H torsion
[ 10167 10162 10161 10158 ] final -108.86 input  -65.29 | X-H torsion
[ 10718 10713 10712 10709 ] final  -26.77 input   66.30 | X-H torsion
[ 10763 10752 10751 10750 ] final -113.68 input  -60.55 | X-H torsion
[ 11005 11000 10999 10996 ] final   67.68 input  -57.11 | X-H torsion

> <Gold.Protein.ActiveResidues>
 VAL166  LYS551  ARG553  GLY616  TRP617  ASP618  TYR619  PRO620  LYS621  CYS622 
 ASP623  PHE694  ASN695  SER759  ASP760  ASP761  ALA762  ILE779  LEU786  VAL792 
 PHE793  MET794  SER795  GLU796  ALA797  LYS798  CYS799  TRP800  GLU811  SER814 

> <Gold.Protein.RotatedAtoms>
  150.8008  134.7100  159.6597 H   0  0  0  0  0  0  0  0  0  0  0  0  # atno 6907 bound_to 6896
  152.4124  134.6097  160.0032 H   0  0  0  0  0  0  0  0  0  0  0  0  # atno 6908 bound_to 6896
  151.6336  133.3293  159.3150 H   0  0  0  0  0  0  0  0  0  0  0  0  # atno 6909 bound_to 6896
  146.0599  139.5114  142.9664 H   0  0  0  0  0  0  0  0  0  0  0  0  # atno 7974 bound_to 7965
  154.4074  140.1258  156.4761 H   0  0  0  0  0  0  0  0  0  0  0  0  # atno 8008 bound_to 7997
  155.7131  140.3493  155.4963 H   0  0  0  0  0  0  0  0  0  0  0  0  # atno 8009 bound_to 7997
  155.9282  140.1065  157.1143 H   0  0  0  0  0  0  0  0  0  0  0  0  # atno 8010 bound_to 7997
  140.1615  143.4116  152.1422 H   0  0  0  0  0  0  0  0  0  0  0  0  # atno 10167 bound_to 10162
  156.4469  130.4476  149.7015 H   0  0  0  0  0  0  0  0  0  0  0  0  # atno 10718 bound_to 10713
  154.8407  135.4445  154.1388 H   0  0  0  0  0  0  0  0  0  0  0  0  # atno 10763 bound_to 10752
  153.2578  135.6933  153.7616 H   0  0  0  0  0  0  0  0  0  0  0  0  # atno 10764 bound_to 10752
  153.6904  135.3388  155.3176 H   0  0  0  0  0  0  0  0  0  0  0  0  # atno 10765 bound_to 10752
  139.9756  134.6827  156.0360 H   0  0  0  0  0  0  0  0  0  0  0  0  # atno 11005 bound_to 11000
  145.6578  141.0248  143.1725 LP  0  0  0  0  0  0  0  0  0  0  0  0  # atno 17320 bound_to 7965
  144.7169  139.8165  143.7395 LP  0  0  0  0  0  0  0  0  0  0  0  0  # atno 17321 bound_to 7965
  139.5379  144.7228  151.4832 LP  0  0  0  0  0  0  0  0  0  0  0  0  # atno 17342 bound_to 10162
  140.6640  143.8438  150.6920 LP  0  0  0  0  0  0  0  0  0  0  0  0  # atno 17343 bound_to 10162
  156.3858  130.7602  151.2599 LP  0  0  0  0  0  0  0  0  0  0  0  0  # atno 17370 bound_to 10713
  157.7504  131.0282  150.4040 LP  0  0  0  0  0  0  0  0  0  0  0  0  # atno 17371 bound_to 10713
  141.1433  133.6560  156.3794 LP  0  0  0  0  0  0  0  0  0  0  0  0  # atno 17394 bound_to 11000
  140.5201  134.6312  157.5315 LP  0  0  0  0  0  0  0  0  0  0  0  0  # atno 17395 bound_to 11000

$$$$
