#       Name:                AV-unprocessed.smi:1843
#       Creating user name   scv26
#       Creation time:       Fri Mar 27 09:20:24 2020


#       File generated by GOLD software.
#

@<TRIPOS>MOLECULE
AV-unprocessed.smi:1843
    43    45     1
SMALL
NO_CHARGES


@<TRIPOS>ATOM
      1 ****         0.4239   1.4598   0.6776 O.2            1 S1                 0.0000
      2 ****         0.0683   0.4057   0.1496 C.2            1 S1                 0.0000
      3 ****         0.8744  -0.6313  -0.1374 N.am           1 S1                 0.0000
      4 ****         2.2675  -0.7568   0.1070 C.2            1 S1                 0.0000
      5 ****         3.0197   0.2131   0.6449 N.2            1 S1                 0.0000
      6 ****         4.3457  -0.1740   0.7787 N.2            1 S1                 0.0000
      7 ****         4.5584  -1.4201   0.3390 C.2            1 S1                 0.0000
      8 ****         5.9056  -2.0608   0.3848 C.3            1 S1                 0.0000
      9 ****         6.9879  -1.6555  -0.5888 C.3            1 S1                 0.0000
     10 ****         6.3642  -3.0243  -0.6880 C.3            1 S1                 0.0000
     11 ****         3.1288  -2.2341  -0.2885 S.3            1 S1                 0.0000
     12 ****        -1.1975   0.1497  -0.2105 N.am           1 S1                 0.0000
     13 ****        -2.3248   1.0634  -0.0372 C.3            1 S1                 0.0000
     14 ****        -2.8975   0.8888   1.3871 C.3            1 S1                 0.0000
     15 ****        -4.1822   1.7022   1.6016 C.3            1 S1                 0.0000
     16 ****        -5.2406   1.3455   0.5498 C.3            1 S1                 0.0000
     17 ****        -4.6925   1.5669  -0.8662 C.3            1 S1                 0.0000
     18 ****        -3.3995   0.7649  -1.1087 C.3            1 S1                 0.0000
     19 ****        -2.9094   1.1225  -2.3856 O.3            1 S1                 0.0000
     20 ****         0.4370  -1.4316  -0.5693 H              1 S1                 0.0000
     21 ****         6.1970  -2.2681   1.4127 H              1 S1                 0.0000
     22 ****         6.7306  -0.9301  -1.3581 H              1 S1                 0.0000
     23 ****         8.0053  -1.5911  -0.2085 H              1 S1                 0.0000
     24 ****         6.9659  -3.8745  -0.3735 H              1 S1                 0.0000
     25 ****         5.7042  -3.2086  -1.5333 H              1 S1                 0.0000
     26 ****        -1.3995  -0.7392  -0.6441 H              1 S1                 0.0000
     27 ****        -1.9897   2.0962  -0.1556 H              1 S1                 0.0000
     28 ****        -3.1118  -0.1654   1.5696 H              1 S1                 0.0000
     29 ****        -2.1537   1.1822   2.1289 H              1 S1                 0.0000
     30 ****        -4.5753   1.5182   2.6018 H              1 S1                 0.0000
     31 ****        -3.9551   2.7678   1.5488 H              1 S1                 0.0000
     32 ****        -5.5451   0.3049   0.6693 H              1 S1                 0.0000
     33 ****        -6.1346   1.9508   0.7016 H              1 S1                 0.0000
     34 ****        -5.4493   1.2883  -1.6007 H              1 S1                 0.0000
     35 ****        -4.5004   2.6314  -1.0099 H              1 S1                 0.0000
     36 ****        -3.6358  -0.3003  -1.1121 H              1 S1                 0.0000
     37 ****        -2.6918   2.0422  -2.3764 H              1 S1                 0.0000
     38 ****         1.3824   1.5948   0.9288 LP             1 S1                 0.0000
     39 ****        -0.2458   2.1809   0.8552 LP             1 S1                 0.0000
     40 ****         2.6677   1.1086   0.9173 LP             1 S1                 0.0000
     41 ****         5.0610   0.4116   1.1602 LP             1 S1                 0.0000
     42 ****        -3.6106   0.9487  -3.0770 LP             1 S1                 0.0000
     43 ****        -2.0930   0.5848  -2.5964 LP             1 S1                 0.0000
@<TRIPOS>BOND
    1    1    2 2     
    2    2    3 am    
    3    2   12 am    
    4    3    4 1     
    5    3   20 1     
    6    4   11 1     
    7    4    5 2     
    8    5    6 1     
    9    6    7 2     
   10    7    8 1     
   11    7   11 1     
   12    8   10 1     
   13    8    9 1     
   14    8   21 1     
   15    9   10 1     
   16    9   22 1     
   17    9   23 1     
   18   10   24 1     
   19   10   25 1     
   20   12   13 1     
   21   12   26 1     
   22   13   18 1     
   23   13   14 1     
   24   13   27 1     
   25   14   15 1     
   26   14   28 1     
   27   14   29 1     
   28   15   16 1     
   29   15   30 1     
   30   15   31 1     
   31   16   17 1     
   32   16   32 1     
   33   16   33 1     
   34   17   18 1     
   35   17   34 1     
   36   17   35 1     
   37   18   19 1     
   38   18   36 1     
   39   19   37 1     
   40    1   38 1     
   41    1   39 1     
   42    5   40 1     
   43    6   41 1     
   44   19   42 1     
   45   19   43 1     
@<TRIPOS>SUBSTRUCTURE
      1 S1             1
@<TRIPOS>SET
LONE_PAIRS      STATIC     ATOMS    <user>   **** ""
6 38 39 40 41 42 43
DONOR_HYDROGENS      STATIC     ATOMS    <user>   **** ""
3 20 26 37
ATOM$BLUE        STATIC     ATOMS    COLORGROUP SYSTEM
6 38 39 40 41 42 43
ATOM$RED        STATIC     ATOMS    COLORGROUP SYSTEM
3 20 26 37
