#       Name:                AV-unprocessed.smi:157
#       Creating user name   scv26
#       Creation time:       Thu Mar 26 18:58:39 2020


#       File generated by GOLD software.
#

@<TRIPOS>MOLECULE
AV-unprocessed.smi:157
    45    47     1
SMALL
NO_CHARGES


@<TRIPOS>ATOM
      1 ****        -2.5872   1.6837  -3.5810 O.3            1 S1                 0.0000
      2 ****        -2.1312   0.4113  -3.1731 C.3            1 S1                 0.0000
      3 ****        -0.5979   0.3255  -3.3367 C.3            1 S1                 0.0000
      4 ****        -0.0056   1.0191  -2.2337 O.3            1 S1                 0.0000
      5 ****         0.5766   0.1238  -1.3306 C.3            1 S1                 0.0000
      6 ****         0.1090   0.4477   0.0544 N.pl3          1 S1                 0.0000
      7 ****        -0.9802   1.1529   0.3894 C.2            1 S1                 0.0000
      8 ****        -1.1725   1.2811   1.6912 N.2            1 S1                 0.0000
      9 ****        -0.0993   0.5967   2.2588 C.2            1 S1                 0.0000
     10 ****         0.7102   0.0751   1.2600 C.2            1 S1                 0.0000
     11 ****         1.8677  -0.6780   1.2084 N.2            1 S1                 0.0000
     12 ****         2.6096  -0.7257   2.2699 C.2            1 S1                 0.0000
     13 ****         2.3933  -0.2053   3.5380 N.pl3          1 S1                 0.0000
     14 ****         1.1511  -0.3828   4.2704 C.3            1 S1                 0.0000
     15 ****         0.0047   0.4947   3.7531 C.3            1 S1                 0.0000
     16 ****         0.1666   1.8089   4.2459 O.3            1 S1                 0.0000
     17 ****         0.1203  -1.2743  -1.7332 C.3            1 S1                 0.0000
     18 ****        -0.0087  -1.0924  -3.2279 C.3            1 S1                 0.0000
     19 ****        -0.7924  -2.1091  -3.8194 O.3            1 S1                 0.0000
     20 ****        -0.2979   0.7802  -4.2821 H              1 S1                 0.0000
     21 ****         1.6598   0.2514  -1.3214 H              1 S1                 0.0000
     22 ****        -0.9318   0.1166   4.1642 H              1 S1                 0.0000
     23 ****         0.9846  -1.1085  -3.6790 H              1 S1                 0.0000
     24 ****        -3.5263   1.7128  -3.4806 H              1 S1                 0.0000
     25 ****        -2.4422   0.2090  -2.1483 H              1 S1                 0.0000
     26 ****        -2.6335  -0.3164  -3.8101 H              1 S1                 0.0000
     27 ****        -1.6544   1.5823  -0.3367 H              1 S1                 0.0000
     28 ****         3.5629  -1.2529   2.2121 H              1 S1                 0.0000
     29 ****         3.1797  -0.1256   4.1664 H              1 S1                 0.0000
     30 ****         0.8642  -1.4307   4.1707 H              1 S1                 0.0000
     31 ****         1.3196  -0.2135   5.3342 H              1 S1                 0.0000
     32 ****        -0.5773   2.3214   3.9676 H              1 S1                 0.0000
     33 ****         0.8460  -2.0316  -1.4351 H              1 S1                 0.0000
     34 ****        -0.8455  -1.4979  -1.2762 H              1 S1                 0.0000
     35 ****        -0.8409  -1.9478  -4.7494 H              1 S1                 0.0000
     36 ****        -2.3457   1.8371  -4.5392 LP             1 S1                 0.0000
     37 ****        -2.1654   2.3908  -3.0135 LP             1 S1                 0.0000
     38 ****        -0.7124   1.5460  -1.7616 LP             1 S1                 0.0000
     39 ****         0.6986   1.6398  -2.5783 LP             1 S1                 0.0000
     40 ****        -1.9158   1.7584   2.1599 LP             1 S1                 0.0000
     41 ****         2.1250  -1.1712   0.3773 LP             1 S1                 0.0000
     42 ****         1.0079   2.2066   3.8800 LP             1 S1                 0.0000
     43 ****         0.2123   1.7929   5.2447 LP             1 S1                 0.0000
     44 ****        -1.7120  -2.0977  -3.4267 LP             1 S1                 0.0000
     45 ****        -0.3701  -3.0002  -3.6532 LP             1 S1                 0.0000
@<TRIPOS>BOND
    1    1    2 1     
    2    1   24 1     
    3    2    3 1     
    4    2   25 1     
    5    2   26 1     
    6    3   20 1     
    7    3   18 1     
    8    3    4 1     
    9    4    5 1     
   10    5   21 1     
   11    5    6 1     
   12    5   17 1     
   13    6   10 1     
   14    6    7 1     
   15    7    8 2     
   16    7   27 1     
   17    8    9 1     
   18    9   15 1     
   19    9   10 2     
   20   10   11 1     
   21   11   12 2     
   22   12   13 1     
   23   12   28 1     
   24   13   14 1     
   25   13   29 1     
   26   14   15 1     
   27   14   30 1     
   28   14   31 1     
   29   15   22 1     
   30   15   16 1     
   31   16   32 1     
   32   17   18 1     
   33   17   33 1     
   34   17   34 1     
   35   18   23 1     
   36   18   19 1     
   37   19   35 1     
   38    1   36 1     
   39    1   37 1     
   40    4   38 1     
   41    4   39 1     
   42    8   40 1     
   43   11   41 1     
   44   16   42 1     
   45   16   43 1     
   46   19   44 1     
   47   19   45 1     
@<TRIPOS>SUBSTRUCTURE
      1 S1             1
@<TRIPOS>SET
LONE_PAIRS      STATIC     ATOMS    <user>   **** ""
10 36 37 38 39 40 41 42 43 44 45
DONOR_HYDROGENS      STATIC     ATOMS    <user>   **** ""
4 24 29 32 35
ATOM$BLUE        STATIC     ATOMS    COLORGROUP SYSTEM
10 36 37 38 39 40 41 42 43 44 45
ATOM$RED        STATIC     ATOMS    COLORGROUP SYSTEM
4 24 29 32 35
