#       Name:                AV-unprocessed.smi:1556
#       Creating user name   scv26
#       Creation time:       Fri Mar 27 06:45:54 2020


#       File generated by GOLD software.
#

@<TRIPOS>MOLECULE
AV-unprocessed.smi:1556
    40    41     1
SMALL
NO_CHARGES


@<TRIPOS>ATOM
      1 ****        -3.6653   5.6776   1.6612 C.3            1 S1                 0.0000
      2 ****        -2.9862   4.6286   0.9315 N.pl3          1 S1                 0.0000
      3 ****        -2.7148   3.3382   1.3323 C.2            1 S1                 0.0000
      4 ****        -2.0536   2.7210   0.3082 C.2            1 S1                 0.0000
      5 ****        -1.5340   1.3120   0.2416 C.3            1 S1                 0.0000
      6 ****         0.0026   1.2747   0.2179 C.3            1 S1                 0.0000
      7 ****         0.5022  -0.0940   0.1673 N.am           1 S1                 0.0000
      8 ****         0.6569  -0.8975   1.2334 C.2            1 S1                 0.0000
      9 ****         0.4009  -0.5513   2.3851 O.2            1 S1                 0.0000
     10 ****         1.1291  -2.1249   0.9517 N.am           1 S1                 0.0000
     11 ****         1.4058  -3.2228   1.8788 C.3            1 S1                 0.0000
     12 ****         2.3909  -4.2313   1.2583 C.3            1 S1                 0.0000
     13 ****         2.3749  -5.5182   2.0934 C.3            1 S1                 0.0000
     14 ****         0.6928  -5.6409   2.8125 S.o2           1 S1                 0.0000
     15 ****        -0.0747  -6.6778   2.1062 O.2            1 S1                 0.0000
     16 ****         0.8031  -5.6465   4.2790 O.2            1 S1                 0.0000
     17 ****         0.1285  -3.9905   2.2544 C.3            1 S1                 0.0000
     18 ****        -1.9713   3.7344  -0.6895 C.2            1 S1                 0.0000
     19 ****        -2.5285   4.8740  -0.3133 N.2            1 S1                 0.0000
     20 ****        -4.0200   5.2971   2.6195 H              1 S1                 0.0000
     21 ****        -4.5185   6.0365   1.0850 H              1 S1                 0.0000
     22 ****        -2.9790   6.5056   1.8403 H              1 S1                 0.0000
     23 ****        -3.0104   2.9691   2.3034 H              1 S1                 0.0000
     24 ****        -1.8978   0.7345   1.0923 H              1 S1                 0.0000
     25 ****        -1.9200   0.8071  -0.6447 H              1 S1                 0.0000
     26 ****         0.3763   1.8033  -0.6594 H              1 S1                 0.0000
     27 ****         0.4113   1.7910   1.0884 H              1 S1                 0.0000
     28 ****         0.7441  -0.4580  -0.7427 H              1 S1                 0.0000
     29 ****         1.3577  -2.3024  -0.0159 H              1 S1                 0.0000
     30 ****         1.8666  -2.8362   2.7898 H              1 S1                 0.0000
     31 ****         2.0667  -4.4718   0.2446 H              1 S1                 0.0000
     32 ****         3.3975  -3.8196   1.1790 H              1 S1                 0.0000
     33 ****         2.5993  -6.4079   1.5049 H              1 S1                 0.0000
     34 ****         3.0879  -5.4563   2.9157 H              1 S1                 0.0000
     35 ****        -0.4520  -3.5072   3.0405 H              1 S1                 0.0000
     36 ****        -0.5141  -4.1358   1.3853 H              1 S1                 0.0000
     37 ****        -1.5224   3.6756  -1.6700 H              1 S1                 0.0000
     38 ****         0.0584   0.3708   2.5656 LP             1 S1                 0.0000
     39 ****         0.5352  -1.1917   3.1412 LP             1 S1                 0.0000
     40 ****        -2.5952   5.7250  -0.8342 LP             1 S1                 0.0000
@<TRIPOS>BOND
    1    1    2 1     
    2    1   20 1     
    3    1   21 1     
    4    1   22 1     
    5    2   19 1     
    6    2    3 1     
    7    3    4 2     
    8    3   23 1     
    9    4    5 1     
   10    4   18 1     
   11    5    6 1     
   12    5   24 1     
   13    5   25 1     
   14    6    7 1     
   15    6   26 1     
   16    6   27 1     
   17    7    8 am    
   18    7   28 1     
   19    8    9 2     
   20    8   10 am    
   21   10   11 1     
   22   10   29 1     
   23   11   17 1     
   24   11   12 1     
   25   11   30 1     
   26   12   13 1     
   27   12   31 1     
   28   12   32 1     
   29   13   14 1     
   30   13   33 1     
   31   13   34 1     
   32   14   15 2     
   33   14   16 2     
   34   14   17 1     
   35   17   35 1     
   36   17   36 1     
   37   18   19 2     
   38   18   37 1     
   39    9   38 1     
   40    9   39 1     
   41   19   40 1     
@<TRIPOS>SUBSTRUCTURE
      1 S1             1
@<TRIPOS>SET
LONE_PAIRS      STATIC     ATOMS    <user>   **** ""
5 38 39 15 16 40
DONOR_HYDROGENS      STATIC     ATOMS    <user>   **** ""
2 28 29
ATOM$BLUE        STATIC     ATOMS    COLORGROUP SYSTEM
5 38 39 15 16 40
ATOM$RED        STATIC     ATOMS    COLORGROUP SYSTEM
2 28 29
