AV-unprocessed.smi:2599|AV-procd|sdf|10180|dock3
  -GOLD-   2272014193D 1   1.00000     0.00000
 Structure written by MMmdl.
 40 41  0  0  0  0  0  0  0  0  1 V2000
  154.1739  138.7139  158.1069 C   0  0  0  0  0  0  0  0  0  0  0  0
  153.8984  139.0298  156.7466 O   0  0  0  0  0  0  0  0  0  0  0  0
  152.9883  138.2468  156.0669 C   0  0  0  0  0  0  0  0  0  0  0  0
  152.6491  138.5859  154.7460 C   0  0  0  0  0  0  0  0  0  0  0  0
  151.7150  137.7724  154.0830 C   0  0  0  0  0  0  0  0  0  0  0  0
  151.1826  136.6591  154.7783 C   0  0  0  0  0  0  0  0  0  0  0  0
  150.2071  135.8202  154.1775 N   0  0  0  0  0  0  0  0  0  0  0  0
  149.7464  134.6327  154.6070 C   0  0  0  0  0  0  0  0  0  0  0  0
  150.0837  134.0775  155.6529 O   0  0  0  0  0  0  0  0  0  0  0  0
  148.8494  134.1243  153.7487 N   0  0  0  0  0  0  0  0  0  0  0  0
  148.1609  132.8402  153.8839 C   0  0  1  0  0  0  0  0  0  0  0  0
  147.3861  132.8476  155.2131 C   0  0  0  0  0  0  0  0  0  0  0  0
  147.2617  132.5797  152.6463 C   0  0  0  0  0  0  0  0  0  0  0  0
  146.2982  133.7485  152.3558 C   0  0  0  0  0  0  0  0  0  0  0  0
  145.3648  133.4257  151.1776 C   0  0  0  0  0  0  0  0  0  0  0  0
  144.6391  132.2319  151.4425 O   0  0  0  0  0  0  0  0  0  0  0  0
  145.4848  131.0979  151.5861 C   0  0  0  0  0  0  0  0  0  0  0  0
  146.4227  131.2909  152.7880 C   0  0  0  0  0  0  0  0  0  0  0  0
  151.5488  136.4066  156.0578 N   0  0  0  0  0  0  0  0  0  0  0  0
  152.4386  137.1761  156.6929 N   0  0  0  0  0  0  0  0  0  0  0  0
  154.8963  139.4263  158.5047 H   0  0  0  0  0  0  0  0  0  0  0  0
  154.6048  137.7164  158.2047 H   0  0  0  0  0  0  0  0  0  0  0  0
  153.2747  138.7778  158.7215 H   0  0  0  0  0  0  0  0  0  0  0  0
  153.0846  139.4462  154.2601 H   0  0  0  0  0  0  0  0  0  0  0  0
  151.4164  138.0221  153.0764 H   0  0  0  0  0  0  0  0  0  0  0  0
  149.7549  136.2034  153.3605 H   0  0  0  0  0  0  0  0  0  0  0  0
  148.6346  134.6621  152.9219 H   0  0  0  0  0  0  0  0  0  0  0  0
  148.8938  132.0333  153.9371 H   0  0  0  0  0  0  0  0  0  0  0  0
  146.9587  131.8709  155.4375 H   0  0  0  0  0  0  0  0  0  0  0  0
  146.5736  133.5747  155.1972 H   0  0  0  0  0  0  0  0  0  0  0  0
  148.0427  133.1021  156.0458 H   0  0  0  0  0  0  0  0  0  0  0  0
  147.9097  132.4585  151.7765 H   0  0  0  0  0  0  0  0  0  0  0  0
  145.7001  133.9640  153.2423 H   0  0  0  0  0  0  0  0  0  0  0  0
  146.8520  134.6576  152.1235 H   0  0  0  0  0  0  0  0  0  0  0  0
  144.6560  134.2404  151.0285 H   0  0  0  0  0  0  0  0  0  0  0  0
  145.9300  133.3228  150.2500 H   0  0  0  0  0  0  0  0  0  0  0  0
  144.8643  130.2141  151.7346 H   0  0  0  0  0  0  0  0  0  0  0  0
  146.0538  130.9355  150.6695 H   0  0  0  0  0  0  0  0  0  0  0  0
  147.0656  130.4151  152.8769 H   0  0  0  0  0  0  0  0  0  0  0  0
  145.8317  131.3358  153.7038 H   0  0  0  0  0  0  0  0  0  0  0  0
  1  2  1  0  0  0  0
  1 21  1  0  0  0  0
  1 22  1  0  0  0  0
  1 23  1  0  0  0  0
  2  3  1  0  0  0  0
  3 20  1  0  0  0  0
  3  4  2  0  0  0  0
  4  5  1  0  0  0  0
  4 24  1  0  0  0  0
  5  6  2  0  0  0  0
  5 25  1  0  0  0  0
  6  7  1  0  0  0  0
  6 19  1  0  0  0  0
  7  8  1  0  0  0  0
  7 26  1  0  0  0  0
  8  9  2  0  0  0  0
  8 10  1  0  0  0  0
 10 11  1  0  0  0  0
 10 27  1  0  0  0  0
 11 12  1  0  0  0  0
 11 13  1  0  0  0  0
 11 28  1  0  0  0  0
 12 29  1  0  0  0  0
 12 30  1  0  0  0  0
 12 31  1  0  0  0  0
 13 18  1  0  0  0  0
 13 14  1  0  0  0  0
 13 32  1  0  0  0  0
 14 15  1  0  0  0  0
 14 33  1  0  0  0  0
 14 34  1  0  0  0  0
 15 16  1  0  0  0  0
 15 35  1  0  0  0  0
 15 36  1  0  0  0  0
 16 17  1  0  0  0  0
 17 18  1  0  0  0  0
 17 37  1  0  0  0  0
 17 38  1  0  0  0  0
 18 39  1  0  0  0  0
 18 40  1  0  0  0  0
 19 20  2  0  0  0  0
M  END
> <s_m_source_file>
AV-unprocessed.smi

> <i_m_source_file_index>
2599

> <i_lp_mmshare_version>
43012

> <i_f3d_flags>
0

> <s_epik_input>
W0NIM11PYzFbY0hdW2NIXWMobm4xKVtOSF1DKD1PKVtOSF1bQ0BIXShbQ0gzXSlbQ0hdMltDSDJdW0NIMl1PW0NIMl1bQ0gyXTI=

> <s_epik_cmdline>
J2VwaWtfcHl0aG9uJywgJy1waCcsICc3LjAnLCAnLXRuJywgJzgnLCAnLW1hJywgJzIwMCcsICctbWV0YWxfYmluZGluZycsICctaW1hZScsICc8aW5maWxlLm1hZT4nLCAnLW9tYWUnLCAnPG91dGZpbGUubWFlPic=

> <r_lp_tautomer_probability>
1

> <r_epik_Ionization_Penalty>
0.00150063

> <r_epik_Ionization_Penalty_Charging>
0

> <r_epik_Ionization_Penalty_Neutral>
0.00150063

> <r_epik_State_Penalty>
-0

> <r_epik_Charging_Adjusted_Penalty>
0

> <i_epik_Tot_Q>
0

> <i_epik_Tot_abs_Q>
0

> <r_epik_Metal_State_Penalty>
-0

> <b_epik_Metal_Only>
0

> <s_lp_Force_Field>
OPLS_2005

> <r_lp_Energy>
19.9533

> <b_lp_Chiralities_Consistent>
1

> <s_lp_Variant>
AV-unprocessed.smi:2599-2

> <Gold.Version>
5.8.1

> <Gold.Id.Protein>
6NUR|6NUR_protein|mol2

> <Gold.PLP.Fitness>
39.0016

> <Gold.PLP.PLP>
-30.1587

> <Gold.PLP.part.hbond>
-3.7848

> <Gold.PLP.part.metal>
0.0000

> <Gold.PLP.part.buried>
-2.0988

> <Gold.PLP.part.nonpolar>
-23.6841

> <Gold.PLP.part.repulsive>
0.1961

> <Gold.PLP.ligand.clash>
0.0000

> <Gold.PLP.ligand.torsion>
0.0953

> <Gold.PLP.Chemscore.Hbond>
3.0000

> <Gold.PLP.Chemscore.CHOScore>
0.0000

> <Gold.PLP.Chemscore.Metal>
0.0000

> <Gold.Chemscore.Hbonds>
donor molecule, donor type, donor heavy atom, donor atom, acceptor molecule, acceptor atom, score
      L1  H     7    26       P1  7948  0.85
      L1  H    10    27       P1  7948  0.93
      P1  H  7997  8008       L1     2  0.01

> <Gold.PLP.Chemscore.Internal.Correction>
0.0336

> <Gold.Rescore>
     Score         DG    S(hbond)    S(metal)    S(lipo)     H(rot)  DE(clash)    DE(int)     intcor
     13.92     -16.57       2.52        0.00      56.77       1.55       0.01       2.64       ----

> <Gold.Chemscore.Fitness>
13.9200

> <Gold.Chemscore.DG>
-16.5677

> <Gold.Chemscore.ZeroCoef>
-5.4800

> <Gold.Chemscore.Hbond>
2.5184

> <Gold.Chemscore.Metal>
0.0000

> <Gold.Chemscore.Lipo>
56.7710

> <Gold.Chemscore.Internal_Hbond>
0.0000

> <Gold.Chemscore.DEClash>
0.0089

> <Gold.Chemscore.DEInternal>
2.6388

> <Gold.Chemscore.Rot>
1.5492

> <Gold.Chemscore.Internal.Correction>
   9.000000E+99

> <Gold.Chemscore.Hbonds>
donor molecule, donor type, donor heavy atom, donor atom, acceptor molecule, acceptor atom, score
      L1  H     7    26       P1  7948  0.14
      L1  H    10    27       P1  7948  0.20
      P1  H  7997  8008       L1     2  0.01

> <Gold.Chemscore.Hbond.Weighted>
-8.4113

> <Gold.Chemscore.Metal.Weighted>
-0.0000

> <Gold.Chemscore.Lipo.Weighted>
-6.6422

> <Gold.Chemscore.Internal_Hbond.Weighted>
0.0000

> <Gold.Chemscore.DEClash.Weighted>
0.0089

> <Gold.Chemscore.DEInternal.Weighted>
2.6388

> <Gold.Chemscore.Rot.Weighted>
3.9659

> <Gold.Chemscore.Internal.Correction.Weighted>
   9.000000E+99

> <Gold.Protein.RotatedTorsions>
[ 6907 6896 6895 6894 ] final   -5.94 input  -60.11 | X-H torsion
[ 7974 7965 7964 7962 ] final   98.16 input  175.53 | X-H torsion
[ 8008 7997 7996 7995 ] final  -63.63 input   59.86 | X-H torsion
[ 10167 10162 10161 10158 ] final  113.56 input  -65.29 | X-H torsion
[ 10718 10713 10712 10709 ] final -177.20 input   66.30 | X-H torsion
[ 10763 10752 10751 10750 ] final  148.62 input  -60.55 | X-H torsion
[ 11005 11000 10999 10996 ] final  115.15 input  -57.11 | X-H torsion

> <Gold.Protein.ActiveResidues>
 VAL166  LYS551  ARG553  GLY616  TRP617  ASP618  TYR619  PRO620  LYS621  CYS622 
 ASP623  PHE694  ASN695  SER759  ASP760  ASP761  ALA762  ILE779  LEU786  VAL792 
 PHE793  MET794  SER795  GLU796  ALA797  LYS798  CYS799  TRP800  GLU811  SER814 

> <Gold.Protein.RotatedAtoms>
  151.4735  135.1047  159.9757 H   0  0  0  0  0  0  0  0  0  0  0  0  # atno 6907 bound_to 6896
  152.4807  133.8244  159.7081 H   0  0  0  0  0  0  0  0  0  0  0  0  # atno 6908 bound_to 6896
  150.8877  133.7224  159.2940 H   0  0  0  0  0  0  0  0  0  0  0  0  # atno 6909 bound_to 6896
  145.4159  139.2327  143.3223 H   0  0  0  0  0  0  0  0  0  0  0  0  # atno 7974 bound_to 7965
  154.4565  140.0971  156.6772 H   0  0  0  0  0  0  0  0  0  0  0  0  # atno 8008 bound_to 7997
  155.5123  140.3476  155.4372 H   0  0  0  0  0  0  0  0  0  0  0  0  # atno 8009 bound_to 7997
  156.0787  140.1367  156.9728 H   0  0  0  0  0  0  0  0  0  0  0  0  # atno 8010 bound_to 7997
  139.6452  144.7126  151.2156 H   0  0  0  0  0  0  0  0  0  0  0  0  # atno 10167 bound_to 10162
  156.8259  130.9636  151.3109 H   0  0  0  0  0  0  0  0  0  0  0  0  # atno 10718 bound_to 10713
  154.0577  135.2876  155.3330 H   0  0  0  0  0  0  0  0  0  0  0  0  # atno 10763 bound_to 10752
  154.6828  135.5257  153.8289 H   0  0  0  0  0  0  0  0  0  0  0  0  # atno 10764 bound_to 10752
  153.0535  135.6586  154.0768 H   0  0  0  0  0  0  0  0  0  0  0  0  # atno 10765 bound_to 10752
  139.9001  134.9579  156.7002 H   0  0  0  0  0  0  0  0  0  0  0  0  # atno 11005 bound_to 11000
  146.2681  140.4877  142.8825 LP  0  0  0  0  0  0  0  0  0  0  0  0  # atno 17320 bound_to 7965
  144.8278  140.6657  143.6311 LP  0  0  0  0  0  0  0  0  0  0  0  0  # atno 17321 bound_to 7965
  140.7511  143.6242  150.8484 LP  0  0  0  0  0  0  0  0  0  0  0  0  # atno 17342 bound_to 10162
  139.9885  143.5873  152.2918 LP  0  0  0  0  0  0  0  0  0  0  0  0  # atno 17343 bound_to 10162
  157.6432  130.8823  149.9488 LP  0  0  0  0  0  0  0  0  0  0  0  0  # atno 17370 bound_to 10713
  156.0962  130.3659  150.0303 LP  0  0  0  0  0  0  0  0  0  0  0  0  # atno 17371 bound_to 10713
  140.7156  133.9185  155.8113 LP  0  0  0  0  0  0  0  0  0  0  0  0  # atno 17394 bound_to 11000
  141.0266  134.0814  157.4061 LP  0  0  0  0  0  0  0  0  0  0  0  0  # atno 17395 bound_to 11000

$$$$
