AV-unprocessed.smi:3032|AV-procd|sdf|11566|dock7
  -GOLD-   2272016533D 1   1.00000     0.00000
 Structure written by MMmdl.
 37 38  0  0  0  0  0  0  0  0  1 V2000
  153.5813  141.7670  161.0945 C   0  0  0  0  0  0  0  0  0  0  0  0
  152.6301  142.5653  160.1915 C   0  0  1  0  0  0  0  0  0  0  0  0
  153.3984  143.5746  159.3171 C   0  0  0  0  0  0  0  0  0  0  0  0
  152.4509  144.3651  158.4012 C   0  0  0  0  0  0  0  0  0  0  0  0
  151.6060  143.4232  157.5296 C   0  0  0  0  0  0  0  0  0  0  0  0
  150.8158  142.4220  158.3976 C   0  0  1  0  0  0  0  0  0  0  0  0
  149.9916  141.4631  157.5294 C   0  0  0  0  0  0  0  0  0  0  0  0
  150.1020  140.2457  157.6755 O   0  0  0  0  0  0  0  0  0  0  0  0
  149.1494  142.0270  156.6486 N   0  0  0  0  0  0  0  0  0  0  0  0
  148.1998  141.3058  155.8037 C   0  0  0  0  0  0  0  0  0  0  0  0
  148.7826  140.9925  154.4119 C   0  0  0  0  0  0  0  0  0  0  0  0
  149.8223  139.9155  154.4143 C   0  0  0  0  0  0  0  0  0  0  0  0
  151.0281  140.0190  154.9854 N   0  0  0  0  0  0  0  0  0  0  0  0
  151.6425  138.7930  154.7833 N   0  0  0  0  0  0  0  0  0  0  0  0
  150.7478  138.0694  154.1088 C   0  0  0  0  0  0  0  0  0  0  0  0
  149.6056  138.7165  153.8511 N   0  0  0  0  0  0  0  0  0  0  0  0
  151.7756  141.6313  159.3124 C   0  0  0  0  0  0  0  0  0  0  0  0
  148.7855  138.3830  153.3661 H   0  0  0  0  0  0  0  0  0  0  0  0
  154.2773  141.1689  160.5056 H   0  0  0  0  0  0  0  0  0  0  0  0
  153.0282  141.0891  161.7451 H   0  0  0  0  0  0  0  0  0  0  0  0
  154.1681  142.4293  161.7315 H   0  0  0  0  0  0  0  0  0  0  0  0
  151.9558  143.1268  160.8397 H   0  0  0  0  0  0  0  0  0  0  0  0
  153.9564  144.2667  159.9484 H   0  0  0  0  0  0  0  0  0  0  0  0
  154.1359  143.0494  158.7085 H   0  0  0  0  0  0  0  0  0  0  0  0
  151.7945  144.9914  159.0066 H   0  0  0  0  0  0  0  0  0  0  0  0
  153.0259  145.0412  157.7679 H   0  0  0  0  0  0  0  0  0  0  0  0
  150.9221  144.0102  156.9152 H   0  0  0  0  0  0  0  0  0  0  0  0
  152.2619  142.8902  156.8390 H   0  0  0  0  0  0  0  0  0  0  0  0
  150.1308  142.9889  159.0306 H   0  0  0  0  0  0  0  0  0  0  0  0
  149.1326  143.0350  156.5923 H   0  0  0  0  0  0  0  0  0  0  0  0
  147.9350  140.3755  156.3058 H   0  0  0  0  0  0  0  0  0  0  0  0
  147.2705  141.8682  155.6992 H   0  0  0  0  0  0  0  0  0  0  0  0
  147.9783  140.7010  153.7352 H   0  0  0  0  0  0  0  0  0  0  0  0
  149.2228  141.8961  153.9889 H   0  0  0  0  0  0  0  0  0  0  0  0
  150.9293  137.0509  153.7987 H   0  0  0  0  0  0  0  0  0  0  0  0
  152.4320  141.0018  158.7090 H   0  0  0  0  0  0  0  0  0  0  0  0
  151.2036  140.9541  159.9486 H   0  0  0  0  0  0  0  0  0  0  0  0
  1  2  1  0  0  0  0
  1 19  1  0  0  0  0
  1 20  1  0  0  0  0
  1 21  1  0  0  0  0
  2 17  1  0  0  0  0
  2  3  1  0  0  0  0
  2 22  1  0  0  0  0
  3  4  1  0  0  0  0
  3 23  1  0  0  0  0
  3 24  1  0  0  0  0
  4  5  1  0  0  0  0
  4 25  1  0  0  0  0
  4 26  1  0  0  0  0
  5  6  1  0  0  0  0
  5 27  1  0  0  0  0
  5 28  1  0  0  0  0
  6  7  1  0  0  0  0
  6 17  1  0  0  0  0
  6 29  1  0  0  0  0
  7  8  2  0  0  0  0
  7  9  1  0  0  0  0
  9 10  1  0  0  0  0
  9 30  1  0  0  0  0
 10 11  1  0  0  0  0
 10 31  1  0  0  0  0
 10 32  1  0  0  0  0
 11 12  1  0  0  0  0
 11 33  1  0  0  0  0
 11 34  1  0  0  0  0
 12 16  1  0  0  0  0
 12 13  2  0  0  0  0
 13 14  1  0  0  0  0
 14 15  2  0  0  0  0
 15 16  1  0  0  0  0
 15 35  1  0  0  0  0
 16 18  1  0  0  0  0
 17 36  1  0  0  0  0
 17 37  1  0  0  0  0
M  END
> <s_m_source_file>
AV-unprocessed.smi

> <i_m_source_file_index>
3032

> <i_lp_mmshare_version>
43012

> <i_f3d_flags>
0

> <s_epik_input>
W0NIM11bQ0BASF0xW0NIMl1bQ0gyXVtDSDJdW0NASF0oW0NIMl0xKUMoPU8pW05IXVtDSDJdW0NIMl1jMm5uW2NIXVtuSF0y

> <s_epik_cmdline>
J2VwaWtfcHl0aG9uJywgJy1waCcsICc3LjAnLCAnLXRuJywgJzgnLCAnLW1hJywgJzIwMCcsICctbWV0YWxfYmluZGluZycsICctaW1hZScsICc8aW5maWxlLm1hZT4nLCAnLW9tYWUnLCAnPG91dGZpbGUubWFlPic=

> <r_lp_tautomer_probability>
0.0517155

> <r_epik_Ionization_Penalty>
0.00149837

> <r_epik_Ionization_Penalty_Charging>
0

> <r_epik_Ionization_Penalty_Neutral>
0.00149837

> <r_epik_State_Penalty>
2.1109

> <r_epik_Charging_Adjusted_Penalty>
2.1109

> <i_epik_Tot_Q>
0

> <i_epik_Tot_abs_Q>
0

> <r_epik_Metal_State_Penalty>
2.23635

> <b_epik_Metal_Only>
0

> <s_lp_Force_Field>
OPLS_2005

> <r_lp_Energy>
11.6052

> <b_lp_Chiralities_Consistent>
1

> <s_lp_Variant>
AV-unprocessed.smi:3032-10

> <Gold.Version>
5.8.1

> <Gold.Id.Protein>
6NUR|6NUR_protein|mol2

> <Gold.PLP.Fitness>
45.9510

> <Gold.PLP.PLP>
-39.0821

> <Gold.PLP.part.hbond>
-3.3765

> <Gold.PLP.part.metal>
0.0000

> <Gold.PLP.part.buried>
-5.3453

> <Gold.PLP.part.nonpolar>
-30.1842

> <Gold.PLP.part.repulsive>
0.2128

> <Gold.PLP.ligand.clash>
0.0000

> <Gold.PLP.ligand.torsion>
0.3259

> <Gold.PLP.Chemscore.Hbond>
1.4500

> <Gold.PLP.Chemscore.CHOScore>
1.0514

> <Gold.PLP.Chemscore.Metal>
0.0000

> <Gold.Chemscore.Hbonds>
donor molecule, donor type, donor heavy atom, donor atom, acceptor molecule, acceptor atom, score
      L1  H     9    30       P1  8028  1.00
      P1  H  7989  7998       L1    13  0.45
      L1  C    15    35       P1  7948  0.05
      L1  C    15    35       P1  7949  0.94

> <Gold.PLP.Chemscore.Internal.Correction>
0.0164

> <Gold.Rescore>
     Score         DG    S(hbond)    S(metal)    S(lipo)     H(rot)  DE(clash)    DE(int)     intcor
     13.96     -15.98       1.74        0.00      89.42       2.25       0.27       1.74       ----

> <Gold.Chemscore.Fitness>
13.9635

> <Gold.Chemscore.DG>
-15.9786

> <Gold.Chemscore.ZeroCoef>
-5.4800

> <Gold.Chemscore.Hbond>
1.7354

> <Gold.Chemscore.Metal>
0.0000

> <Gold.Chemscore.Lipo>
89.4244

> <Gold.Chemscore.Internal_Hbond>
0.0000

> <Gold.Chemscore.DEClash>
0.2713

> <Gold.Chemscore.DEInternal>
1.7439

> <Gold.Chemscore.Rot>
2.2501

> <Gold.Chemscore.Internal.Correction>
   9.000000E+99

> <Gold.Chemscore.Hbonds>
donor molecule, donor type, donor heavy atom, donor atom, acceptor molecule, acceptor atom, score
      L1  H     9    30       P1  8028  0.96

> <Gold.Chemscore.Hbond.Weighted>
-5.7963

> <Gold.Chemscore.Metal.Weighted>
-0.0000

> <Gold.Chemscore.Lipo.Weighted>
-10.4627

> <Gold.Chemscore.Internal_Hbond.Weighted>
0.0000

> <Gold.Chemscore.DEClash.Weighted>
0.2713

> <Gold.Chemscore.DEInternal.Weighted>
1.7439

> <Gold.Chemscore.Rot.Weighted>
5.7603

> <Gold.Chemscore.Internal.Correction.Weighted>
   9.000000E+99

> <Gold.Protein.RotatedTorsions>
[ 6907 6896 6895 6894 ] final -139.08 input  -60.11 | X-H torsion
[ 7974 7965 7964 7962 ] final -149.05 input  175.53 | X-H torsion
[ 8008 7997 7996 7995 ] final  117.08 input   59.86 | X-H torsion
[ 10167 10162 10161 10158 ] final -130.87 input  -65.29 | X-H torsion
[ 10718 10713 10712 10709 ] final  -60.38 input   66.30 | X-H torsion
[ 10763 10752 10751 10750 ] final    6.80 input  -60.55 | X-H torsion
[ 11005 11000 10999 10996 ] final  -47.20 input  -57.11 | X-H torsion

> <Gold.Protein.ActiveResidues>
 VAL166  LYS551  ARG553  GLY616  TRP617  ASP618  TYR619  PRO620  LYS621  CYS622 
 ASP623  PHE694  ASN695  SER759  ASP760  ASP761  ALA762  ILE779  LEU786  VAL792 
 PHE793  MET794  SER795  GLU796  ALA797  LYS798  CYS799  TRP800  GLU811  SER814 

> <Gold.Protein.RotatedAtoms>
  151.0433  133.5687  159.2648 H   0  0  0  0  0  0  0  0  0  0  0  0  # atno 6907 bound_to 6896
  151.2726  135.0688  159.9149 H   0  0  0  0  0  0  0  0  0  0  0  0  # atno 6908 bound_to 6896
  152.5368  134.0160  159.8014 H   0  0  0  0  0  0  0  0  0  0  0  0  # atno 6909 bound_to 6896
  144.7991  140.5116  143.5719 H   0  0  0  0  0  0  0  0  0  0  0  0  # atno 7974 bound_to 7965
  156.2474  140.2904  156.0622 H   0  0  0  0  0  0  0  0  0  0  0  0  # atno 8008 bound_to 7997
  155.1763  140.0403  157.2890 H   0  0  0  0  0  0  0  0  0  0  0  0  # atno 8009 bound_to 7997
  154.6291  140.2495  155.7463 H   0  0  0  0  0  0  0  0  0  0  0  0  # atno 8010 bound_to 7997
  139.9248  143.6340  152.2544 H   0  0  0  0  0  0  0  0  0  0  0  0  # atno 10167 bound_to 10162
  156.0995  130.4188  150.0846 H   0  0  0  0  0  0  0  0  0  0  0  0  # atno 10718 bound_to 10713
  153.2435  135.6906  153.7757 H   0  0  0  0  0  0  0  0  0  0  0  0  # atno 10763 bound_to 10752
  153.6877  135.3318  155.3195 H   0  0  0  0  0  0  0  0  0  0  0  0  # atno 10764 bound_to 10752
  154.8365  135.4538  154.1366 H   0  0  0  0  0  0  0  0  0  0  0  0  # atno 10765 bound_to 10752
  141.0626  133.6704  156.3263 H   0  0  0  0  0  0  0  0  0  0  0  0  # atno 11005 bound_to 11000
  145.5597  139.1479  143.3348 LP  0  0  0  0  0  0  0  0  0  0  0  0  # atno 17320 bound_to 7965
  146.2268  140.5734  142.8993 LP  0  0  0  0  0  0  0  0  0  0  0  0  # atno 17321 bound_to 7965
  139.6831  144.7654  151.1573 LP  0  0  0  0  0  0  0  0  0  0  0  0  # atno 17342 bound_to 10162
  140.7653  143.5696  150.9010 LP  0  0  0  0  0  0  0  0  0  0  0  0  # atno 17343 bound_to 10162
  156.8837  130.9565  151.3596 LP  0  0  0  0  0  0  0  0  0  0  0  0  # atno 17370 bound_to 10713
  157.6162  130.8620  149.9032 LP  0  0  0  0  0  0  0  0  0  0  0  0  # atno 17371 bound_to 10713
  140.5838  134.5719  157.5485 LP  0  0  0  0  0  0  0  0  0  0  0  0  # atno 17394 bound_to 11000
  139.9446  134.7724  156.0593 LP  0  0  0  0  0  0  0  0  0  0  0  0  # atno 17395 bound_to 11000

$$$$
