AV-unprocessed.smi:2701|AV-procd|sdf|10428|dock2
  -GOLD-   2272014463D 1   1.00000     0.00000
 Structure written by MMmdl.
 31 32  0  0  0  0  0  0  0  0  2 V2000
  153.2180  138.9793  154.2789 C   0  0  0  0  0  0  0  0  0  0  0  0
  152.0648  138.4856  155.1761 C   0  0  1  0  0  0  0  0  0  0  0  0
  151.5019  139.6270  156.0587 C   0  0  0  0  0  0  0  0  0  0  0  0
  150.4340  140.1586  155.7515 O   0  0  0  0  0  0  0  0  0  0  0  0
  152.2989  139.9017  157.1201 N   0  5  0  0  0  0  0  0  0  0  0  0
  151.7338  140.3989  158.5567 S   0  0  0  0  0  0  0  0  0  0  0  0
  150.5637  141.2808  158.4201 O   0  0  0  0  0  0  0  0  0  0  0  0
  151.6107  139.2738  159.4966 O   0  0  0  0  0  0  0  0  0  0  0  0
  153.1083  141.4640  159.1998 C   0  0  0  0  0  0  0  0  0  0  0  0
  152.7517  142.0569  160.5350 C   0  0  0  0  0  0  0  0  0  0  0  0
  153.5403  142.1014  161.7180 C   0  0  0  0  0  0  0  0  0  0  0  0
  152.7395  142.7516  162.6119 C   0  0  0  0  0  0  0  0  0  0  0  0
  151.5619  143.0953  162.0324 O   0  0  0  0  0  0  0  0  0  0  0  0
  151.5815  142.6537  160.7046 N   0  0  0  0  0  0  0  0  0  0  0  0
  150.9663  137.7530  154.3777 C   0  0  0  0  0  0  0  0  0  0  0  0
  150.5324  136.6539  155.3221 C   0  0  0  0  0  0  0  0  0  0  0  0
  151.8636  136.2650  155.9482 C   0  0  0  0  0  0  0  0  0  0  0  0
  152.6033  137.4790  156.0426 O   0  0  0  0  0  0  0  0  0  0  0  0
  152.8598  139.6402  153.4887 H   0  0  0  0  0  0  0  0  0  0  0  0
  153.7242  138.1419  153.7979 H   0  0  0  0  0  0  0  0  0  0  0  0
  153.9664  139.5237  154.8563 H   0  0  0  0  0  0  0  0  0  0  0  0
  154.0257  140.8801  159.2538 H   0  0  0  0  0  0  0  0  0  0  0  0
  153.2774  142.2523  158.4665 H   0  0  0  0  0  0  0  0  0  0  0  0
  154.5333  141.7126  161.8833 H   0  0  0  0  0  0  0  0  0  0  0  0
  152.8605  143.0366  163.6463 H   0  0  0  0  0  0  0  0  0  0  0  0
  150.1337  138.3858  154.0693 H   0  0  0  0  0  0  0  0  0  0  0  0
  151.3857  137.3117  153.4725 H   0  0  0  0  0  0  0  0  0  0  0  0
  149.8563  137.0480  156.0818 H   0  0  0  0  0  0  0  0  0  0  0  0
  150.0384  135.8237  154.8172 H   0  0  0  0  0  0  0  0  0  0  0  0
  151.7473  135.7907  156.9227 H   0  0  0  0  0  0  0  0  0  0  0  0
  152.4037  135.5771  155.2965 H   0  0  0  0  0  0  0  0  0  0  0  0
  1  2  1  0  0  0  0
  1 19  1  0  0  0  0
  1 20  1  0  0  0  0
  1 21  1  0  0  0  0
  2 18  1  0  0  0  0
  2  3  1  0  0  0  0
  2 15  1  0  0  0  0
  3  4  2  0  0  0  0
  3  5  1  0  0  0  0
  5  6  1  0  0  0  0
  6  7  2  0  0  0  0
  6  8  2  0  0  0  0
  6  9  1  0  0  0  0
  9 10  1  0  0  0  0
  9 22  1  0  0  0  0
  9 23  1  0  0  0  0
 10 14  2  0  0  0  0
 10 11  1  0  0  0  0
 11 12  2  0  0  0  0
 11 24  1  0  0  0  0
 12 13  1  0  0  0  0
 12 25  1  0  0  0  0
 13 14  1  0  0  0  0
 15 16  1  0  0  0  0
 15 26  1  0  0  0  0
 15 27  1  0  0  0  0
 16 17  1  0  0  0  0
 16 28  1  0  0  0  0
 16 29  1  0  0  0  0
 17 18  1  0  0  0  0
 17 30  1  0  0  0  0
 17 31  1  0  0  0  0
M  CHG  1   5  -1
M  END
> <s_m_source_file>
AV-unprocessed.smi

> <i_m_source_file_index>
2701

> <i_lp_mmshare_version>
43012

> <i_f3d_flags>
0

> <s_epik_input>
TzFbQ0gyXVtDSDJdW0NIMl1bQ0BAXTEoW0NIM10pQyg9TylbTkhdUyg9TykoPU8pW0NIMl1jMltjSF1bY0hdb24y

> <s_epik_cmdline>
J2VwaWtfcHl0aG9uJywgJy1waCcsICc3LjAnLCAnLXRuJywgJzgnLCAnLW1hJywgJzIwMCcsICctbWV0YWxfYmluZGluZycsICctaW1hZScsICc8aW5maWxlLm1hZT4nLCAnLW9tYWUnLCAnPG91dGZpbGUubWFlPic=

> <r_lp_tautomer_probability>
1

> <r_epik_Ionization_Penalty>
0.000279175

> <r_epik_Ionization_Penalty_Charging>
0.000279174

> <r_epik_Ionization_Penalty_Neutral>
1.67252e-10

> <r_epik_State_Penalty>
-0

> <r_epik_Charging_Adjusted_Penalty>
0.000279174

> <i_epik_Tot_Q>
-1

> <i_epik_Tot_abs_Q>
1

> <r_epik_Metal_State_Penalty>
-0

> <b_epik_Metal_Only>
0

> <s_lp_Force_Field>
OPLS_2005

> <r_lp_Energy>
15.6344

> <b_lp_Chiralities_Consistent>
1

> <s_lp_Variant>
AV-unprocessed.smi:2701-1

> <Gold.Version>
5.8.1

> <Gold.Id.Protein>
6NUR|6NUR_protein|mol2

> <Gold.PLP.Fitness>
42.3086

> <Gold.PLP.PLP>
-35.9733

> <Gold.PLP.part.hbond>
-2.6872

> <Gold.PLP.part.metal>
0.0000

> <Gold.PLP.part.buried>
-5.1419

> <Gold.PLP.part.nonpolar>
-27.3007

> <Gold.PLP.part.repulsive>
0.2653

> <Gold.PLP.ligand.clash>
0.0000

> <Gold.PLP.ligand.torsion>
1.7935

> <Gold.PLP.Chemscore.Hbond>
2.9440

> <Gold.PLP.Chemscore.CHOScore>
0.0000

> <Gold.PLP.Chemscore.Metal>
0.0000

> <Gold.Chemscore.Hbonds>
donor molecule, donor type, donor heavy atom, donor atom, acceptor molecule, acceptor atom, score
      P1  H  6933  6945       L1    13  0.19
      P1  H  7997  8008       L1     5  1.46

> <Gold.PLP.Chemscore.Internal.Correction>
1.0903

> <Gold.Rescore>
     Score         DG    S(hbond)    S(metal)    S(lipo)     H(rot)  DE(clash)    DE(int)     intcor
     11.13     -15.90       1.70        0.00      74.59       1.56       0.65       4.12       ----

> <Gold.Chemscore.Fitness>
11.1310

> <Gold.Chemscore.DG>
-15.9022

> <Gold.Chemscore.ZeroCoef>
-5.4800

> <Gold.Chemscore.Hbond>
1.7025

> <Gold.Chemscore.Metal>
0.0000

> <Gold.Chemscore.Lipo>
74.5913

> <Gold.Chemscore.Internal_Hbond>
0.0000

> <Gold.Chemscore.DEClash>
0.6535

> <Gold.Chemscore.DEInternal>
4.1178

> <Gold.Chemscore.Rot>
1.5591

> <Gold.Chemscore.Internal.Correction>
   9.000000E+99

> <Gold.Chemscore.Hbonds>
donor molecule, donor type, donor heavy atom, donor atom, acceptor molecule, acceptor atom, score
      P1  H  7997  8008       L1     5  0.64

> <Gold.Chemscore.Hbond.Weighted>
-5.6864

> <Gold.Chemscore.Metal.Weighted>
-0.0000

> <Gold.Chemscore.Lipo.Weighted>
-8.7272

> <Gold.Chemscore.Internal_Hbond.Weighted>
0.0000

> <Gold.Chemscore.DEClash.Weighted>
0.6535

> <Gold.Chemscore.DEInternal.Weighted>
4.1178

> <Gold.Chemscore.Rot.Weighted>
3.9914

> <Gold.Chemscore.Internal.Correction.Weighted>
   9.000000E+99

> <Gold.Protein.RotatedTorsions>
[ 6907 6896 6895 6894 ] final  -77.90 input  -60.11 | X-H torsion
[ 7974 7965 7964 7962 ] final -166.55 input  175.53 | X-H torsion
[ 8008 7997 7996 7995 ] final  -61.27 input   59.86 | X-H torsion
[ 10167 10162 10161 10158 ] final  -91.63 input  -65.29 | X-H torsion
[ 10718 10713 10712 10709 ] final  -50.44 input   66.30 | X-H torsion
[ 10763 10752 10751 10750 ] final  -86.04 input  -60.55 | X-H torsion
[ 11005 11000 10999 10996 ] final  -59.53 input  -57.11 | X-H torsion

> <Gold.Protein.ActiveResidues>
 VAL166  LYS551  ARG553  GLY616  TRP617  ASP618  TYR619  PRO620  LYS621  CYS622 
 ASP623  PHE694  ASN695  SER759  ASP760  ASP761  ALA762  ILE779  LEU786  VAL792 
 PHE793  MET794  SER795  GLU796  ALA797  LYS798  CYS799  TRP800  GLU811  SER814 

> <Gold.Protein.RotatedAtoms>
  150.6986  134.4354  159.5267 H   0  0  0  0  0  0  0  0  0  0  0  0  # atno 6907 bound_to 6896
  152.2073  134.8531  160.0510 H   0  0  0  0  0  0  0  0  0  0  0  0  # atno 6908 bound_to 6896
  151.9429  133.3608  159.4008 H   0  0  0  0  0  0  0  0  0  0  0  0  # atno 6909 bound_to 6896
  144.7243  140.2649  143.6259 H   0  0  0  0  0  0  0  0  0  0  0  0  # atno 7974 bound_to 7965
  154.4439  140.1021  156.6404 H   0  0  0  0  0  0  0  0  0  0  0  0  # atno 8008 bound_to 7997
  155.5508  140.3485  155.4449 H   0  0  0  0  0  0  0  0  0  0  0  0  # atno 8009 bound_to 7997
  156.0530  140.1308  157.0017 H   0  0  0  0  0  0  0  0  0  0  0  0  # atno 8010 bound_to 7997
  140.3429  143.2932  151.9814 H   0  0  0  0  0  0  0  0  0  0  0  0  # atno 10167 bound_to 10162
  156.1800  130.4150  149.9521 H   0  0  0  0  0  0  0  0  0  0  0  0  # atno 10718 bound_to 10713
  154.6180  135.5463  153.7544 H   0  0  0  0  0  0  0  0  0  0  0  0  # atno 10763 bound_to 10752
  153.0225  135.6405  154.1482 H   0  0  0  0  0  0  0  0  0  0  0  0  # atno 10764 bound_to 10752
  154.1418  135.2908  155.3139 H   0  0  0  0  0  0  0  0  0  0  0  0  # atno 10765 bound_to 10752
  141.1252  133.6617  156.5085 H   0  0  0  0  0  0  0  0  0  0  0  0  # atno 11005 bound_to 11000
  145.8099  139.1999  143.1999 LP  0  0  0  0  0  0  0  0  0  0  0  0  # atno 17320 bound_to 7965
  146.0605  140.7976  142.9737 LP  0  0  0  0  0  0  0  0  0  0  0  0  # atno 17321 bound_to 7965
  139.4837  144.6141  151.7379 LP  0  0  0  0  0  0  0  0  0  0  0  0  # atno 17342 bound_to 10162
  140.5291  144.0758  150.6047 LP  0  0  0  0  0  0  0  0  0  0  0  0  # atno 17343 bound_to 10162
  156.7294  130.9037  151.3624 LP  0  0  0  0  0  0  0  0  0  0  0  0  # atno 17370 bound_to 10713
  157.6862  130.9187  150.0392 LP  0  0  0  0  0  0  0  0  0  0  0  0  # atno 17371 bound_to 10713
  140.4388  134.7035  157.4981 LP  0  0  0  0  0  0  0  0  0  0  0  0  # atno 17394 bound_to 11000
  140.0243  134.6500  155.9195 LP  0  0  0  0  0  0  0  0  0  0  0  0  # atno 17395 bound_to 11000

$$$$
