AV-unprocessed.smi:245|AV-procd|sdf|1878|dock7
  -GOLD-   2262020523D 1   1.00000     0.00000
 Structure written by MMmdl.
 54 58  0  0  0  0  0  0  0  0  1 V2000
  155.1579  140.5655  160.5821 O   0  0  0  0  0  0  0  0  0  0  0  0
  154.1432  141.1017  160.1435 C   0  0  0  0  0  0  0  0  0  0  0  0
  153.2693  140.3492  159.1245 C   0  0  0  0  0  0  0  0  0  0  0  0
  152.0992  141.0912  158.6243 N   0  0  0  0  0  0  0  0  0  0  0  0
  151.5992  140.4991  157.5131 C   0  0  0  0  0  0  0  0  0  0  0  0
  152.4370  140.0587  156.5370 N   0  0  0  0  0  0  0  0  0  0  0  0
  151.9412  139.4503  155.4551 C   0  0  0  0  0  0  0  0  0  0  0  0
  150.6683  139.1754  155.1610 N   0  0  0  0  0  0  0  0  0  0  0  0
  149.8281  139.6033  156.1471 C   0  0  0  0  0  0  0  0  0  0  0  0
  150.2078  140.2703  157.3447 C   0  0  0  0  0  0  0  0  0  0  0  0
  149.0832  140.5664  158.1040 N   0  0  0  0  0  0  0  0  0  0  0  0
  148.0915  140.1058  157.3910 C   0  0  0  0  0  0  0  0  0  0  0  0
  148.4507  139.4877  156.2135 N   0  0  0  0  0  0  0  0  0  0  0  0
  147.5736  138.9250  155.2293 C   0  0  0  0  0  0  0  0  0  0  0  0
  148.0895  138.4667  153.8623 C   0  0  0  0  0  0  0  0  0  0  0  0
  146.7380  138.8679  153.2277 C   0  0  0  0  0  0  0  0  0  0  0  0
  146.8571  139.5450  151.8507 C   0  0  0  0  0  0  0  0  0  0  0  0
  147.1195  138.6118  150.8230 O   0  0  0  0  0  0  0  0  0  0  0  0
  145.7217  137.7096  153.1397 C   0  0  0  0  0  0  0  0  0  0  0  0
  144.4824  138.1241  152.6034 O   0  0  0  0  0  0  0  0  0  0  0  0
  146.6040  139.8109  154.4459 C   0  0  0  0  0  0  0  0  0  0  0  0
  152.1479  142.5580  158.6666 C   0  0  1  0  0  0  0  0  0  0  0  0
  150.8064  143.2407  158.2989 C   0  0  0  0  0  0  0  0  0  0  0  0
  150.9222  144.7727  158.3817 C   0  0  0  0  0  0  0  0  0  0  0  0
  151.4017  145.2303  159.7683 C   0  0  0  0  0  0  0  0  0  0  0  0
  152.7136  144.5346  160.1646 C   0  0  0  0  0  0  0  0  0  0  0  0
  152.5630  143.0058  160.0858 C   0  0  2  0  0  0  0  0  0  0  0  0
  153.7849  142.3394  160.5180 N   0  0  0  0  0  0  0  0  0  0  0  0
  153.9136  140.0580  158.2922 H   0  0  0  0  0  0  0  0  0  0  0  0
  152.9261  139.4266  159.5942 H   0  0  0  0  0  0  0  0  0  0  0  0
  152.6684  139.1356  154.7211 H   0  0  0  0  0  0  0  0  0  0  0  0
  147.0647  140.2008  157.7131 H   0  0  0  0  0  0  0  0  0  0  0  0
  147.0370  138.1181  155.7313 H   0  0  0  0  0  0  0  0  0  0  0  0
  148.9256  139.0722  153.5077 H   0  0  0  0  0  0  0  0  0  0  0  0
  148.3280  137.4042  153.8039 H   0  0  0  0  0  0  0  0  0  0  0  0
  145.9319  140.0602  151.5909 H   0  0  0  0  0  0  0  0  0  0  0  0
  147.6403  140.3038  151.8478 H   0  0  0  0  0  0  0  0  0  0  0  0
  147.7089  137.9534  151.1574 H   0  0  0  0  0  0  0  0  0  0  0  0
  146.1091  136.8918  152.5317 H   0  0  0  0  0  0  0  0  0  0  0  0
  145.5244  137.2841  154.1237 H   0  0  0  0  0  0  0  0  0  0  0  0
  144.5642  138.1796  151.6637 H   0  0  0  0  0  0  0  0  0  0  0  0
  145.6043  139.8746  154.8762 H   0  0  0  0  0  0  0  0  0  0  0  0
  147.0097  140.8069  154.2576 H   0  0  0  0  0  0  0  0  0  0  0  0
  152.9125  142.8872  157.9594 H   0  0  0  0  0  0  0  0  0  0  0  0
  150.4863  142.9743  157.2923 H   0  0  0  0  0  0  0  0  0  0  0  0
  150.0195  142.8957  158.9711 H   0  0  0  0  0  0  0  0  0  0  0  0
  151.6200  145.1252  157.6210 H   0  0  0  0  0  0  0  0  0  0  0  0
  149.9597  145.2311  158.1528 H   0  0  0  0  0  0  0  0  0  0  0  0
  151.5355  146.3124  159.7783 H   0  0  0  0  0  0  0  0  0  0  0  0
  150.6335  145.0074  160.5099 H   0  0  0  0  0  0  0  0  0  0  0  0
  153.5183  144.8638  159.5054 H   0  0  0  0  0  0  0  0  0  0  0  0
  152.9960  144.8342  161.1745 H   0  0  0  0  0  0  0  0  0  0  0  0
  151.7856  142.7025  160.7898 H   0  0  0  0  0  0  0  0  0  0  0  0
  154.3746  142.8312  161.1737 H   0  0  0  0  0  0  0  0  0  0  0  0
  1  2  2  0  0  0  0
  2 28  1  0  0  0  0
  2  3  1  0  0  0  0
  3  4  1  0  0  0  0
  3 29  1  0  0  0  0
  3 30  1  0  0  0  0
  4  5  1  0  0  0  0
  4 22  1  0  0  0  0
  5 10  1  0  0  0  0
  5  6  2  0  0  0  0
  6  7  1  0  0  0  0
  7  8  2  0  0  0  0
  7 31  1  0  0  0  0
  8  9  1  0  0  0  0
  9 13  1  0  0  0  0
  9 10  2  0  0  0  0
 10 11  1  0  0  0  0
 11 12  2  0  0  0  0
 12 13  1  0  0  0  0
 12 32  1  0  0  0  0
 13 14  1  0  0  0  0
 14 21  1  0  0  0  0
 14 15  1  0  0  0  0
 14 33  1  0  0  0  0
 15 16  1  0  0  0  0
 15 34  1  0  0  0  0
 15 35  1  0  0  0  0
 16 17  1  0  0  0  0
 16 19  1  0  0  0  0
 16 21  1  0  0  0  0
 17 18  1  0  0  0  0
 17 36  1  0  0  0  0
 17 37  1  0  0  0  0
 18 38  1  0  0  0  0
 19 20  1  0  0  0  0
 19 39  1  0  0  0  0
 19 40  1  0  0  0  0
 20 41  1  0  0  0  0
 21 42  1  0  0  0  0
 21 43  1  0  0  0  0
 22 27  1  0  0  0  0
 22 23  1  0  0  0  0
 22 44  1  0  0  0  0
 23 24  1  0  0  0  0
 23 45  1  0  0  0  0
 23 46  1  0  0  0  0
 24 25  1  0  0  0  0
 24 47  1  0  0  0  0
 24 48  1  0  0  0  0
 25 26  1  0  0  0  0
 25 49  1  0  0  0  0
 25 50  1  0  0  0  0
 26 27  1  0  0  0  0
 26 51  1  0  0  0  0
 26 52  1  0  0  0  0
 27 28  1  0  0  0  0
 27 53  1  0  0  0  0
 28 54  1  0  0  0  0
M  END
> <s_m_source_file>
AV-unprocessed.smi

> <i_m_source_file_index>
245

> <i_lp_mmshare_version>
43012

> <i_f3d_flags>
0

> <s_epik_input>
W0NIMl0xW0NIMl1bQ0gyXVtDSDJdW0NASF0oW0NASF0xMilbTkhdQyg9TylbQ0gyXU4yYyhuW2NIXW4zKWMoYzM0KW5bY0hdbjRbQ0hdKFtDSDJdNSlbQ0gyXUM1KFtDSDJdW09IXSlbQ0gyXVtPSF0=

> <s_epik_cmdline>
J2VwaWtfcHl0aG9uJywgJy1waCcsICc3LjAnLCAnLXRuJywgJzgnLCAnLW1hJywgJzIwMCcsICctbWV0YWxfYmluZGluZycsICctaW1hZScsICc8aW5maWxlLm1hZT4nLCAnLW9tYWUnLCAnPG91dGZpbGUubWFlPic=

> <r_lp_tautomer_probability>
1

> <r_epik_Ionization_Penalty>
0.000702616

> <r_epik_Ionization_Penalty_Charging>
0

> <r_epik_Ionization_Penalty_Neutral>
0.000702616

> <r_epik_State_Penalty>
0.000343985

> <r_epik_Charging_Adjusted_Penalty>
0.000343985

> <i_epik_Tot_Q>
0

> <i_epik_Tot_abs_Q>
0

> <r_epik_Metal_State_Penalty>
-0

> <b_epik_Metal_Only>
0

> <s_lp_Force_Field>
OPLS_2005

> <r_lp_Energy>
49.1986

> <b_lp_Chiralities_Consistent>
1

> <s_lp_Variant>
AV-unprocessed.smi:245-3

> <Gold.Version>
5.8.1

> <Gold.Id.Protein>
6NUR|6NUR_protein|mol2

> <Gold.PLP.Fitness>
51.6588

> <Gold.PLP.PLP>
-43.4941

> <Gold.PLP.part.hbond>
-5.6609

> <Gold.PLP.part.metal>
0.0000

> <Gold.PLP.part.buried>
-4.1412

> <Gold.PLP.part.nonpolar>
-32.0658

> <Gold.PLP.part.repulsive>
0.0865

> <Gold.PLP.ligand.clash>
0.0000

> <Gold.PLP.ligand.torsion>
0.8585

> <Gold.PLP.Chemscore.Hbond>
3.0000

> <Gold.PLP.Chemscore.CHOScore>
0.0000

> <Gold.PLP.Chemscore.Metal>
0.0000

> <Gold.Chemscore.Hbonds>
donor molecule, donor type, donor heavy atom, donor atom, acceptor molecule, acceptor atom, score
      L1  H    18    38       P1  7948  0.60
      L1  H    20    41       P1 10171  1.00
      P1  H  7997  8008       L1     6  1.00

> <Gold.PLP.Chemscore.Internal.Correction>
0.8817

> <Gold.Rescore>
     Score         DG    S(hbond)    S(metal)    S(lipo)     H(rot)  DE(clash)    DE(int)     intcor
     14.37     -17.63       2.42        0.00     106.52       3.28       1.26       2.01       ----

> <Gold.Chemscore.Fitness>
14.3658

> <Gold.Chemscore.DG>
-17.6314

> <Gold.Chemscore.ZeroCoef>
-5.4800

> <Gold.Chemscore.Hbond>
2.4176

> <Gold.Chemscore.Metal>
0.0000

> <Gold.Chemscore.Lipo>
106.5175

> <Gold.Chemscore.Internal_Hbond>
0.0000

> <Gold.Chemscore.DEClash>
1.2567

> <Gold.Chemscore.DEInternal>
2.0089

> <Gold.Chemscore.Rot>
3.2758

> <Gold.Chemscore.Internal.Correction>
   9.000000E+99

> <Gold.Chemscore.Hbonds>
donor molecule, donor type, donor heavy atom, donor atom, acceptor molecule, acceptor atom, score
      L1  H    18    38       P1  7948  0.60
      L1  H    20    41       P1 10171  0.92
      P1  H  7997  8008       L1     6  0.78

> <Gold.Chemscore.Hbond.Weighted>
-8.0748

> <Gold.Chemscore.Metal.Weighted>
-0.0000

> <Gold.Chemscore.Lipo.Weighted>
-12.4625

> <Gold.Chemscore.Internal_Hbond.Weighted>
0.0000

> <Gold.Chemscore.DEClash.Weighted>
1.2567

> <Gold.Chemscore.DEInternal.Weighted>
2.0089

> <Gold.Chemscore.Rot.Weighted>
8.3859

> <Gold.Chemscore.Internal.Correction.Weighted>
   9.000000E+99

> <Gold.Protein.RotatedTorsions>
[ 6907 6896 6895 6894 ] final -156.23 input  -60.11 | X-H torsion
[ 7974 7965 7964 7962 ] final  -46.43 input  175.53 | X-H torsion
[ 8008 7997 7996 7995 ] final  -51.59 input   59.86 | X-H torsion
[ 10167 10162 10161 10158 ] final  -65.77 input  -65.29 | X-H torsion
[ 10718 10713 10712 10709 ] final    0.83 input   66.30 | X-H torsion
[ 10763 10752 10751 10750 ] final   81.70 input  -60.55 | X-H torsion
[ 11005 11000 10999 10996 ] final -162.08 input  -57.11 | X-H torsion

> <Gold.Protein.ActiveResidues>
 VAL166  LYS551  ARG553  GLY616  TRP617  ASP618  TYR619  PRO620  LYS621  CYS622 
 ASP623  PHE694  ASN695  SER759  ASP760  ASP761  ALA762  ILE779  LEU786  VAL792 
 PHE793  MET794  SER795  GLU796  ALA797  LYS798  CYS799  TRP800  GLU811  SER814 

> <Gold.Protein.RotatedAtoms>
  151.2844  133.4194  159.2628 H   0  0  0  0  0  0  0  0  0  0  0  0  # atno 6907 bound_to 6896
  151.0332  134.9554  159.8132 H   0  0  0  0  0  0  0  0  0  0  0  0  # atno 6908 bound_to 6896
  152.5350  134.2805  159.9058 H   0  0  0  0  0  0  0  0  0  0  0  0  # atno 6909 bound_to 6896
  145.9719  140.7374  142.9406 H   0  0  0  0  0  0  0  0  0  0  0  0  # atno 7974 bound_to 7965
  154.4086  140.1244  156.4853 H   0  0  0  0  0  0  0  0  0  0  0  0  # atno 8008 bound_to 7997
  155.7044  140.3494  155.4927 H   0  0  0  0  0  0  0  0  0  0  0  0  # atno 8009 bound_to 7997
  155.9356  140.1077  157.1087 H   0  0  0  0  0  0  0  0  0  0  0  0  # atno 8010 bound_to 7997
  140.5706  143.2317  151.6547 H   0  0  0  0  0  0  0  0  0  0  0  0  # atno 10167 bound_to 10162
  156.8391  130.5515  149.5679 H   0  0  0  0  0  0  0  0  0  0  0  0  # atno 10718 bound_to 10713
  153.1139  135.4756  154.9082 H   0  0  0  0  0  0  0  0  0  0  0  0  # atno 10763 bound_to 10752
  154.7509  135.3106  154.8562 H   0  0  0  0  0  0  0  0  0  0  0  0  # atno 10764 bound_to 10752
  153.9144  135.6861  153.4803 H   0  0  0  0  0  0  0  0  0  0  0  0  # atno 10765 bound_to 10752
  140.6132  134.4827  157.5217 H   0  0  0  0  0  0  0  0  0  0  0  0  # atno 11005 bound_to 11000
  144.6839  140.2763  143.7298 LP  0  0  0  0  0  0  0  0  0  0  0  0  # atno 17320 bound_to 7965
  145.7893  139.1921  143.2112 LP  0  0  0  0  0  0  0  0  0  0  0  0  # atno 17321 bound_to 7965
  139.5115  144.3506  152.0655 LP  0  0  0  0  0  0  0  0  0  0  0  0  # atno 17342 bound_to 10162
  140.2643  144.4033  150.6174 LP  0  0  0  0  0  0  0  0  0  0  0  0  # atno 17343 bound_to 10162
  156.0890  130.5881  150.9700 LP  0  0  0  0  0  0  0  0  0  0  0  0  # atno 17370 bound_to 10713
  157.6365  131.0915  150.8338 LP  0  0  0  0  0  0  0  0  0  0  0  0  # atno 17371 bound_to 10713
  139.9183  134.8200  156.1292 LP  0  0  0  0  0  0  0  0  0  0  0  0  # atno 17394 bound_to 11000
  141.0793  133.6761  156.2303 LP  0  0  0  0  0  0  0  0  0  0  0  0  # atno 17395 bound_to 11000

$$$$
