AV-unprocessed.smi:3259|AV-procd|sdf|12474|dock3
  -GOLD-   2272018373D 1   1.00000     0.00000
 Structure written by MMmdl.
 39 40  0  0  0  0  0  0  0  0  1 V2000
  147.5217  127.2019  156.2216 C   0  0  0  0  0  0  0  0  0  0  0  0
  147.5710  128.6132  156.3918 O   0  0  0  0  0  0  0  0  0  0  0  0
  148.5857  129.3283  155.6733 C   0  0  1  0  0  0  0  0  0  0  0  0
  149.9745  128.9958  156.2333 C   0  0  0  0  0  0  0  0  0  0  0  0
  148.3366  129.2261  154.1562 C   0  0  0  0  0  0  0  0  0  0  0  0
  147.3497  130.3808  154.3163 C   0  0  2  0  0  0  0  0  0  0  0  0
  147.3855  131.3102  153.1926 N   0  0  0  0  0  0  0  0  0  0  0  0
  146.8922  132.5574  153.2228 C   0  0  0  0  0  0  0  0  0  0  0  0
  146.3704  133.0548  154.2201 O   0  0  0  0  0  0  0  0  0  0  0  0
  147.0132  133.3722  151.9338 C   0  0  0  0  0  0  0  0  0  0  0  0
  146.0611  132.9233  150.9331 N   0  0  0  0  0  0  0  0  0  0  0  0
  146.0304  131.7213  150.2565 C   0  0  0  0  0  0  0  0  0  0  0  0
  144.9499  131.7511  149.4221 C   0  0  0  0  0  0  0  0  0  0  0  0
  144.3732  133.0295  149.6618 C   0  0  0  0  0  0  0  0  0  0  0  0
  145.0406  133.7289  150.5654 N   0  0  0  0  0  0  0  0  0  0  0  0
  148.1517  130.8274  155.5660 C   0  0  0  0  0  0  0  0  0  0  0  0
  147.3255  131.3863  156.7299 C   0  0  0  0  0  0  0  0  0  0  0  0
  149.2850  131.8444  155.3327 C   0  0  0  0  0  0  0  0  0  0  0  0
  146.6192  126.8189  156.6973 H   0  0  0  0  0  0  0  0  0  0  0  0
  148.3692  126.7096  156.6977 H   0  0  0  0  0  0  0  0  0  0  0  0
  147.4906  126.9097  155.1725 H   0  0  0  0  0  0  0  0  0  0  0  0
  150.7524  129.6093  155.7801 H   0  0  0  0  0  0  0  0  0  0  0  0
  150.2558  127.9609  156.0396 H   0  0  0  0  0  0  0  0  0  0  0  0
  150.0154  129.1589  157.3105 H   0  0  0  0  0  0  0  0  0  0  0  0
  149.2174  129.4817  153.5641 H   0  0  0  0  0  0  0  0  0  0  0  0
  147.8855  128.2996  153.8027 H   0  0  0  0  0  0  0  0  0  0  0  0
  146.3473  130.0208  154.5604 H   0  0  0  0  0  0  0  0  0  0  0  0
  147.8025  130.9800  152.3347 H   0  0  0  0  0  0  0  0  0  0  0  0
  146.8467  134.4304  152.1405 H   0  0  0  0  0  0  0  0  0  0  0  0
  148.0222  133.2800  151.5292 H   0  0  0  0  0  0  0  0  0  0  0  0
  146.7706  130.9531  150.4246 H   0  0  0  0  0  0  0  0  0  0  0  0
  144.6211  130.9771  148.7448 H   0  0  0  0  0  0  0  0  0  0  0  0
  143.4958  133.4673  149.2093 H   0  0  0  0  0  0  0  0  0  0  0  0
  147.0009  132.4094  156.5368 H   0  0  0  0  0  0  0  0  0  0  0  0
  147.8975  131.3907  157.6583 H   0  0  0  0  0  0  0  0  0  0  0  0
  146.4223  130.8023  156.9077 H   0  0  0  0  0  0  0  0  0  0  0  0
  148.8943  132.8347  155.0962 H   0  0  0  0  0  0  0  0  0  0  0  0
  149.9356  131.5548  154.5076 H   0  0  0  0  0  0  0  0  0  0  0  0
  149.9147  131.9505  156.2167 H   0  0  0  0  0  0  0  0  0  0  0  0
  1  2  1  0  0  0  0
  1 19  1  0  0  0  0
  1 20  1  0  0  0  0
  1 21  1  0  0  0  0
  2  3  1  0  0  0  0
  3 16  1  0  0  0  0
  3  4  1  0  0  0  0
  3  5  1  0  0  0  0
  4 22  1  0  0  0  0
  4 23  1  0  0  0  0
  4 24  1  0  0  0  0
  5  6  1  0  0  0  0
  5 25  1  0  0  0  0
  5 26  1  0  0  0  0
  6  7  1  0  0  0  0
  6 16  1  0  0  0  0
  6 27  1  0  0  0  0
  7  8  1  0  0  0  0
  7 28  1  0  0  0  0
  8  9  2  0  0  0  0
  8 10  1  0  0  0  0
 10 11  1  0  0  0  0
 10 29  1  0  0  0  0
 10 30  1  0  0  0  0
 11 15  1  0  0  0  0
 11 12  1  0  0  0  0
 12 13  2  0  0  0  0
 12 31  1  0  0  0  0
 13 14  1  0  0  0  0
 13 32  1  0  0  0  0
 14 15  2  0  0  0  0
 14 33  1  0  0  0  0
 16 17  1  0  0  0  0
 16 18  1  0  0  0  0
 17 34  1  0  0  0  0
 17 35  1  0  0  0  0
 17 36  1  0  0  0  0
 18 37  1  0  0  0  0
 18 38  1  0  0  0  0
 18 39  1  0  0  0  0
M  END
> <s_m_source_file>
AV-unprocessed.smi

> <i_m_source_file_index>
3259

> <i_lp_mmshare_version>
43012

> <i_f3d_flags>
0

> <s_epik_input>
W0NIM11PW0NAQF0xKFtDSDNdKVtDSDJdW0NASF0oQzEoW0NIM10pW0NIM10pW05IXUMoPU8pW0NIMl1uMltjSF1bY0hdW2NIXW4y

> <s_epik_cmdline>
J2VwaWtfcHl0aG9uJywgJy1waCcsICc3LjAnLCAnLXRuJywgJzgnLCAnLW1hJywgJzIwMCcsICctbWV0YWxfYmluZGluZycsICctaW1hZScsICc8aW5maWxlLm1hZT4nLCAnLW9tYWUnLCAnPG91dGZpbGUubWFlPic=

> <r_lp_tautomer_probability>
1

> <r_epik_Ionization_Penalty>
1.78399e-05

> <r_epik_Ionization_Penalty_Charging>
0

> <r_epik_Ionization_Penalty_Neutral>
1.78399e-05

> <r_epik_State_Penalty>
-0

> <r_epik_Charging_Adjusted_Penalty>
0

> <i_epik_Tot_Q>
0

> <i_epik_Tot_abs_Q>
0

> <r_epik_Metal_State_Penalty>
-0

> <b_epik_Metal_Only>
0

> <s_lp_Force_Field>
OPLS_2005

> <r_lp_Energy>
23.5096

> <b_lp_Chiralities_Consistent>
1

> <s_lp_Variant>
AV-unprocessed.smi:3259-3

> <Gold.Version>
5.8.1

> <Gold.Id.Protein>
6NUR|6NUR_protein|mol2

> <Gold.PLP.Fitness>
35.3964

> <Gold.PLP.PLP>
-26.9800

> <Gold.PLP.part.hbond>
-1.0000

> <Gold.PLP.part.metal>
0.0000

> <Gold.PLP.part.buried>
-4.1776

> <Gold.PLP.part.nonpolar>
-22.0321

> <Gold.PLP.part.repulsive>
0.1761

> <Gold.PLP.ligand.clash>
0.0000

> <Gold.PLP.ligand.torsion>
0.4791

> <Gold.PLP.Chemscore.Hbond>
1.0000

> <Gold.PLP.Chemscore.CHOScore>
2.0000

> <Gold.PLP.Chemscore.Metal>
0.0000

> <Gold.Chemscore.Hbonds>
donor molecule, donor type, donor heavy atom, donor atom, acceptor molecule, acceptor atom, score
      L1  H     7    28       P1 10747  0.16
      L1  C    12    31       P1 10747  1.00
      L1  C    14    33       P1 10186  0.62

> <Gold.PLP.Chemscore.Internal.Correction>
0.3747

> <Gold.Rescore>
     Score         DG    S(hbond)    S(metal)    S(lipo)     H(rot)  DE(clash)    DE(int)     intcor
     12.54     -13.05       1.00        0.00      71.09       1.60       0.08       0.43       ----

> <Gold.Chemscore.Fitness>
12.5397

> <Gold.Chemscore.DG>
-13.0498

> <Gold.Chemscore.ZeroCoef>
-5.4800

> <Gold.Chemscore.Hbond>
0.9997

> <Gold.Chemscore.Metal>
0.0000

> <Gold.Chemscore.Lipo>
71.0855

> <Gold.Chemscore.Internal_Hbond>
0.0000

> <Gold.Chemscore.DEClash>
0.0815

> <Gold.Chemscore.DEInternal>
0.4286

> <Gold.Chemscore.Rot>
1.5962

> <Gold.Chemscore.Internal.Correction>
   9.000000E+99

> <Gold.Chemscore.Hbonds>
donor molecule, donor type, donor heavy atom, donor atom, acceptor molecule, acceptor atom, score
      L1  H     7    28       P1 10747  0.18

> <Gold.Chemscore.Hbond.Weighted>
-3.3390

> <Gold.Chemscore.Metal.Weighted>
-0.0000

> <Gold.Chemscore.Lipo.Weighted>
-8.3170

> <Gold.Chemscore.Internal_Hbond.Weighted>
0.0000

> <Gold.Chemscore.DEClash.Weighted>
0.0815

> <Gold.Chemscore.DEInternal.Weighted>
0.4286

> <Gold.Chemscore.Rot.Weighted>
4.0862

> <Gold.Chemscore.Internal.Correction.Weighted>
   9.000000E+99

> <Gold.Protein.RotatedTorsions>
[ 6907 6896 6895 6894 ] final  124.90 input  -60.11 | X-H torsion
[ 7974 7965 7964 7962 ] final  100.18 input  175.53 | X-H torsion
[ 8008 7997 7996 7995 ] final   52.06 input   59.86 | X-H torsion
[ 10167 10162 10161 10158 ] final  -26.95 input  -65.29 | X-H torsion
[ 10718 10713 10712 10709 ] final   89.58 input   66.30 | X-H torsion
[ 10763 10752 10751 10750 ] final  129.65 input  -60.55 | X-H torsion
[ 11005 11000 10999 10996 ] final   41.34 input  -57.11 | X-H torsion

> <Gold.Protein.ActiveResidues>
 VAL166  LYS551  ARG553  GLY616  TRP617  ASP618  TYR619  PRO620  LYS621  CYS622 
 ASP623  PHE694  ASN695  SER759  ASP760  ASP761  ALA762  ILE779  LEU786  VAL792 
 PHE793  MET794  SER795  GLU796  ALA797  LYS798  CYS799  TRP800  GLU811  SER814 

> <Gold.Protein.RotatedAtoms>
  152.4038  133.6858  159.6338 H   0  0  0  0  0  0  0  0  0  0  0  0  # atno 6907 bound_to 6896
  150.7926  133.8744  159.3276 H   0  0  0  0  0  0  0  0  0  0  0  0  # atno 6908 bound_to 6896
  151.6503  135.1004  160.0211 H   0  0  0  0  0  0  0  0  0  0  0  0  # atno 6909 bound_to 6896
  145.3889  139.2366  143.3362 H   0  0  0  0  0  0  0  0  0  0  0  0  # atno 7974 bound_to 7965
  155.4455  140.3456  155.4295 H   0  0  0  0  0  0  0  0  0  0  0  0  # atno 8008 bound_to 7997
  156.1252  140.1498  156.9176 H   0  0  0  0  0  0  0  0  0  0  0  0  # atno 8009 bound_to 7997
  154.4853  140.0857  156.7452 H   0  0  0  0  0  0  0  0  0  0  0  0  # atno 8010 bound_to 7997
  140.7280  143.4134  151.1068 H   0  0  0  0  0  0  0  0  0  0  0  0  # atno 10167 bound_to 10162
  157.6956  131.0338  150.3447 H   0  0  0  0  0  0  0  0  0  0  0  0  # atno 10718 bound_to 10713
  153.7453  135.3218  155.3311 H   0  0  0  0  0  0  0  0  0  0  0  0  # atno 10763 bound_to 10752
  154.8281  135.4554  154.0986 H   0  0  0  0  0  0  0  0  0  0  0  0  # atno 10764 bound_to 10752
  153.2173  135.6943  153.8124 H   0  0  0  0  0  0  0  0  0  0  0  0  # atno 10765 bound_to 10752
  140.1844  134.4064  155.8182 H   0  0  0  0  0  0  0  0  0  0  0  0  # atno 11005 bound_to 11000
  146.2807  140.4569  142.8777 LP  0  0  0  0  0  0  0  0  0  0  0  0  # atno 17320 bound_to 7965
  144.8454  140.6921  143.6202 LP  0  0  0  0  0  0  0  0  0  0  0  0  # atno 17321 bound_to 7965
  139.7771  143.8410  152.3131 LP  0  0  0  0  0  0  0  0  0  0  0  0  # atno 17342 bound_to 10162
  139.8348  144.7237  150.9405 LP  0  0  0  0  0  0  0  0  0  0  0  0  # atno 17343 bound_to 10162
  156.3903  130.3896  149.7035 LP  0  0  0  0  0  0  0  0  0  0  0  0  # atno 17370 bound_to 10713
  156.4387  130.7850  151.2871 LP  0  0  0  0  0  0  0  0  0  0  0  0  # atno 17371 bound_to 10713
  141.2224  133.7016  156.7986 LP  0  0  0  0  0  0  0  0  0  0  0  0  # atno 17394 bound_to 11000
  140.2231  134.8742  157.3398 LP  0  0  0  0  0  0  0  0  0  0  0  0  # atno 17395 bound_to 11000

$$$$
