#       Name:                AV-unprocessed.smi:912
#       Creating user name   scv26
#       Creation time:       Fri Mar 27 02:04:54 2020


#       File generated by GOLD software.
#

@<TRIPOS>MOLECULE
AV-unprocessed.smi:912
    30    30     1
SMALL
NO_CHARGES


@<TRIPOS>ATOM
      1 ****        -2.1349   2.0281  -0.2735 C.3            1 S1                 0.0000
      2 ****        -1.4917   0.6988  -0.1509 N.4            1 S1                 1.0000
      3 ****        -0.0009   0.6362  -0.1455 C.3            1 S1                 0.0000
      4 ****         0.5641   1.3584  -1.3968 C.3            1 S1                 0.0000
      5 ****         0.4978   1.2930   1.1673 C.2            1 S1                 0.0000
      6 ****         0.1942   0.6899   2.3231 N.am           1 S1                 0.0000
      7 ****         1.1385   2.3424   1.1466 O.2            1 S1                 0.0000
      8 ****         0.4727  -0.8329  -0.1657 C.ar           1 S1                 0.0000
      9 ****        -0.4289  -1.9274  -0.2057 C.ar           1 S1                 0.0000
     10 ****         0.0867  -3.2391  -0.2256 C.ar           1 S1                 0.0000
     11 ****         1.4052  -3.5203  -0.2089 N.ar           1 S1                 0.0000
     12 ****         2.2671  -2.4842  -0.1728 C.ar           1 S1                 0.0000
     13 ****         1.8559  -1.1372  -0.1507 C.ar           1 S1                 0.0000
     14 ****        -3.2130   1.9159  -0.1605 H              1 S1                 0.0000
     15 ****        -1.9565   2.4714  -1.2529 H              1 S1                 0.0000
     16 ****        -1.7930   2.7216   0.4947 H              1 S1                 0.0000
     17 ****        -1.8140   0.2762   0.7077 H              1 S1                 0.0000
     18 ****         1.6522   1.3059  -1.4424 H              1 S1                 0.0000
     19 ****         0.3097   2.4182  -1.4209 H              1 S1                 0.0000
     20 ****         0.1817   0.9089  -2.3138 H              1 S1                 0.0000
     21 ****         0.4741   1.0990   3.2029 H              1 S1                 0.0000
     22 ****        -0.3440  -0.1649   2.3117 H              1 S1                 0.0000
     23 ****        -1.5002  -1.7977  -0.2215 H              1 S1                 0.0000
     24 ****        -0.5817  -4.0868  -0.2550 H              1 S1                 0.0000
     25 ****         3.3175  -2.7349  -0.1595 H              1 S1                 0.0000
     26 ****         2.5995  -0.3542  -0.1174 H              1 S1                 0.0000
     27 ****        -1.8173   0.1325  -0.9212 H              1 S1                 0.0000
     28 ****         1.3451   2.7850   0.2740 LP             1 S1                 0.0000
     29 ****         1.4530   2.7532   2.0024 LP             1 S1                 0.0000
     30 ****         1.7327  -4.4650  -0.2228 LP             1 S1                 0.0000
@<TRIPOS>BOND
    1    1    2 1     
    2    1   14 1     
    3    1   15 1     
    4    1   16 1     
    5    2    3 1     
    6    2   17 1     
    7    2   27 1     
    8    3    4 1     
    9    3    5 1     
   10    3    8 1     
   11    4   18 1     
   12    4   19 1     
   13    4   20 1     
   14    5    6 am    
   15    5    7 2     
   16    6   21 1     
   17    6   22 1     
   18    8   13 ar    
   19    8    9 ar    
   20    9   10 ar    
   21    9   23 1     
   22   10   11 ar    
   23   10   24 1     
   24   11   12 ar    
   25   12   13 ar    
   26   12   25 1     
   27   13   26 1     
   28    7   28 1     
   29    7   29 1     
   30   11   30 1     
@<TRIPOS>SUBSTRUCTURE
      1 S1             1
@<TRIPOS>SET
LONE_PAIRS      STATIC     ATOMS    <user>   **** ""
3 28 29 30
DONOR_HYDROGENS      STATIC     ATOMS    <user>   **** ""
4 17 27 21 22
ATOM$BLUE        STATIC     ATOMS    COLORGROUP SYSTEM
3 28 29 30
ATOM$RED        STATIC     ATOMS    COLORGROUP SYSTEM
4 17 27 21 22
