AV-unprocessed.smi:2768|AV-procd|sdf|10654|dock2
  -GOLD-   2272015103D 1   1.00000     0.00000
 Structure written by MMmdl.
 34 35  0  0  0  0  0  0  0  0  2 V2000
  152.6255  139.9864  155.0870 O   0  0  0  0  0  0  0  0  0  0  0  0
  151.5605  139.8780  155.7062 C   0  0  0  0  0  0  0  0  0  0  0  0
  151.1593  140.4937  156.8562 N   0  5  0  0  0  0  0  0  0  0  0  0
  152.0429  141.2792  157.7225 C   0  0  2  0  0  0  0  0  0  0  0  0
  152.3786  140.4812  159.0072 C   0  0  0  0  0  0  0  0  0  0  0  0
  153.2286  141.2863  160.0224 C   0  0  0  0  0  0  0  0  0  0  0  0
  152.5710  142.6243  160.4202 C   0  0  0  0  0  0  0  0  0  0  0  0
  152.2322  143.4392  159.1514 C   0  0  0  0  0  0  0  0  0  0  0  0
  151.3977  142.6430  158.1111 C   0  0  2  0  0  0  0  0  0  0  0  0
  150.0909  142.4541  158.6237 O   0  0  0  0  0  0  0  0  0  0  0  0
  150.4943  138.9124  155.1382 C   0  0  0  0  0  0  0  0  0  0  0  0
  151.0893  138.1386  154.2280 F   0  0  0  0  0  0  0  0  0  0  0  0
  150.0018  138.1074  156.0876 F   0  0  0  0  0  0  0  0  0  0  0  0
  149.3484  139.6953  154.4984 C   0  0  0  0  0  0  0  0  0  0  0  0
  148.2839  139.0315  153.8452 C   0  0  0  0  0  0  0  0  0  0  0  0
  147.2564  139.8034  153.2703 C   0  0  0  0  0  0  0  0  0  0  0  0
  147.3259  141.2058  153.3655 C   0  0  0  0  0  0  0  0  0  0  0  0
  148.4269  141.7763  154.0334 C   0  0  0  0  0  0  0  0  0  0  0  0
  149.4164  141.0456  154.5891 N   0  0  0  0  0  0  0  0  0  0  0  0
  152.9909  141.4934  157.2260 H   0  0  0  0  0  0  0  0  0  0  0  0
  151.2946  143.2515  157.2117 H   0  0  0  0  0  0  0  0  0  0  0  0
  151.4558  140.1650  159.4959 H   0  0  0  0  0  0  0  0  0  0  0  0
  152.9077  139.5649  158.7424 H   0  0  0  0  0  0  0  0  0  0  0  0
  153.3899  140.6836  160.9165 H   0  0  0  0  0  0  0  0  0  0  0  0
  154.2220  141.4777  159.6113 H   0  0  0  0  0  0  0  0  0  0  0  0
  151.6601  142.4305  160.9880 H   0  0  0  0  0  0  0  0  0  0  0  0
  153.2321  143.1940  161.0732 H   0  0  0  0  0  0  0  0  0  0  0  0
  151.7014  144.3493  159.4330 H   0  0  0  0  0  0  0  0  0  0  0  0
  153.1636  143.7757  158.6913 H   0  0  0  0  0  0  0  0  0  0  0  0
  150.1763  142.2340  159.5398 H   0  0  0  0  0  0  0  0  0  0  0  0
  148.2539  137.9542  153.7787 H   0  0  0  0  0  0  0  0  0  0  0  0
  146.4294  139.3276  152.7646 H   0  0  0  0  0  0  0  0  0  0  0  0
  146.5557  141.8286  152.9357 H   0  0  0  0  0  0  0  0  0  0  0  0
  148.5144  142.8488  154.1249 H   0  0  0  0  0  0  0  0  0  0  0  0
  1  2  2  0  0  0  0
  2  3  1  0  0  0  0
  2 11  1  0  0  0  0
  3  4  1  0  0  0  0
  4 20  1  0  0  0  0
  4  9  1  0  0  0  0
  4  5  1  0  0  0  0
  5  6  1  0  0  0  0
  5 22  1  0  0  0  0
  5 23  1  0  0  0  0
  6  7  1  0  0  0  0
  6 24  1  0  0  0  0
  6 25  1  0  0  0  0
  7  8  1  0  0  0  0
  7 26  1  0  0  0  0
  7 27  1  0  0  0  0
  8  9  1  0  0  0  0
  8 28  1  0  0  0  0
  8 29  1  0  0  0  0
  9 21  1  0  0  0  0
  9 10  1  0  0  0  0
 10 30  1  0  0  0  0
 11 12  1  0  0  0  0
 11 13  1  0  0  0  0
 11 14  1  0  0  0  0
 14 19  1  0  0  0  0
 14 15  2  0  0  0  0
 15 16  1  0  0  0  0
 15 31  1  0  0  0  0
 16 17  2  0  0  0  0
 16 32  1  0  0  0  0
 17 18  1  0  0  0  0
 17 33  1  0  0  0  0
 18 19  2  0  0  0  0
 18 34  1  0  0  0  0
M  CHG  1   3  -1
M  END
> <s_m_source_file>
AV-unprocessed.smi

> <i_m_source_file_index>
2768

> <i_lp_mmshare_version>
43012

> <i_f3d_flags>
0

> <s_epik_input>
bjFbY0hdW2NIXVtjSF1bY0hdYzFDKEYpKEYpQyg9TylbTkhdW0NAQEhdMltDSDJdW0NIMl1bQ0gyXVtDSDJdW0NASF0yW09IXQ==

> <s_epik_cmdline>
J2VwaWtfcHl0aG9uJywgJy1waCcsICc3LjAnLCAnLXRuJywgJzgnLCAnLW1hJywgJzIwMCcsICctbWV0YWxfYmluZGluZycsICctaW1hZScsICc8aW5maWxlLm1hZT4nLCAnLW9tYWUnLCAnPG91dGZpbGUubWFlPic=

> <r_lp_tautomer_probability>
1

> <r_epik_Ionization_Penalty>
5.70553

> <r_epik_Ionization_Penalty_Charging>
5.70553

> <r_epik_Ionization_Penalty_Neutral>
5.5493e-06

> <r_epik_State_Penalty>
5.70549

> <r_epik_Charging_Adjusted_Penalty>
11.411

> <i_epik_Tot_Q>
-1

> <i_epik_Tot_abs_Q>
1

> <r_epik_Metal_State_Penalty>
1.6859

> <b_epik_Metal_Only>
1

> <s_lp_Force_Field>
OPLS_2005

> <r_lp_Energy>
28.0633

> <b_lp_Chiralities_Consistent>
1

> <s_lp_Variant>
AV-unprocessed.smi:2768-7

> <Gold.Version>
5.8.1

> <Gold.Id.Protein>
6NUR|6NUR_protein|mol2

> <Gold.PLP.Fitness>
45.4175

> <Gold.PLP.PLP>
-39.5165

> <Gold.PLP.part.hbond>
-2.3358

> <Gold.PLP.part.metal>
0.0000

> <Gold.PLP.part.buried>
-4.1978

> <Gold.PLP.part.nonpolar>
-32.8262

> <Gold.PLP.part.repulsive>
0.1470

> <Gold.PLP.ligand.clash>
0.0000

> <Gold.PLP.ligand.torsion>
0.6803

> <Gold.PLP.Chemscore.Hbond>
1.4080

> <Gold.PLP.Chemscore.CHOScore>
1.0000

> <Gold.PLP.Chemscore.Metal>
0.0000

> <Gold.Chemscore.Hbonds>
donor molecule, donor type, donor heavy atom, donor atom, acceptor molecule, acceptor atom, score
      P1  H  7989  7998       L1     1  0.31
      P1  H  7997  8008       L1     1  1.00
      L1  C    18    34       P1  8028  1.00

> <Gold.PLP.Chemscore.Internal.Correction>
0.0376

> <Gold.Rescore>
     Score         DG    S(hbond)    S(metal)    S(lipo)     H(rot)  DE(clash)    DE(int)     intcor
     13.73     -15.50       1.01        0.00      99.62       1.95       0.04       1.74       ----

> <Gold.Chemscore.Fitness>
13.7317

> <Gold.Chemscore.DG>
-15.5046

> <Gold.Chemscore.ZeroCoef>
-5.4800

> <Gold.Chemscore.Hbond>
1.0066

> <Gold.Chemscore.Metal>
0.0000

> <Gold.Chemscore.Lipo>
99.6189

> <Gold.Chemscore.Internal_Hbond>
0.0000

> <Gold.Chemscore.DEClash>
0.0366

> <Gold.Chemscore.DEInternal>
1.7363

> <Gold.Chemscore.Rot>
1.9503

> <Gold.Chemscore.Internal.Correction>
   9.000000E+99

> <Gold.Chemscore.Hbonds>
donor molecule, donor type, donor heavy atom, donor atom, acceptor molecule, acceptor atom, score
      P1  H  7989  7998       L1     1  0.02
      P1  H  7997  8008       L1     1  0.96

> <Gold.Chemscore.Hbond.Weighted>
-3.3620

> <Gold.Chemscore.Metal.Weighted>
-0.0000

> <Gold.Chemscore.Lipo.Weighted>
-11.6554

> <Gold.Chemscore.Internal_Hbond.Weighted>
0.0000

> <Gold.Chemscore.DEClash.Weighted>
0.0366

> <Gold.Chemscore.DEInternal.Weighted>
1.7363

> <Gold.Chemscore.Rot.Weighted>
4.9928

> <Gold.Chemscore.Internal.Correction.Weighted>
   9.000000E+99

> <Gold.Protein.RotatedTorsions>
[ 6907 6896 6895 6894 ] final  -49.08 input  -60.11 | X-H torsion
[ 7974 7965 7964 7962 ] final   60.38 input  175.53 | X-H torsion
[ 8008 7997 7996 7995 ] final  -18.00 input   59.86 | X-H torsion
[ 10167 10162 10161 10158 ] final   -3.80 input  -65.29 | X-H torsion
[ 10718 10713 10712 10709 ] final  119.30 input   66.30 | X-H torsion
[ 10763 10752 10751 10750 ] final -119.83 input  -60.55 | X-H torsion
[ 11005 11000 10999 10996 ] final -150.90 input  -57.11 | X-H torsion

> <Gold.Protein.ActiveResidues>
 VAL166  LYS551  ARG553  GLY616  TRP617  ASP618  TYR619  PRO620  LYS621  CYS622 
 ASP623  PHE694  ASN695  SER759  ASP760  ASP761  ALA762  ILE779  LEU786  VAL792 
 PHE793  MET794  SER795  GLU796  ALA797  LYS798  CYS799  TRP800  GLU811  SER814 

> <Gold.Protein.RotatedAtoms>
  150.8841  134.8236  159.7245 H   0  0  0  0  0  0  0  0  0  0  0  0  # atno 6907 bound_to 6896
  152.4796  134.4750  159.9657 H   0  0  0  0  0  0  0  0  0  0  0  0  # atno 6908 bound_to 6896
  151.4821  133.3505  159.2875 H   0  0  0  0  0  0  0  0  0  0  0  0  # atno 6909 bound_to 6896
  145.8967  139.3551  143.0617 H   0  0  0  0  0  0  0  0  0  0  0  0  # atno 7974 bound_to 7965
  154.4938  140.2127  155.9492 H   0  0  0  0  0  0  0  0  0  0  0  0  # atno 8008 bound_to 7997
  156.1341  140.3191  155.8362 H   0  0  0  0  0  0  0  0  0  0  0  0  # atno 8009 bound_to 7997
  155.4241  140.0499  157.3014 H   0  0  0  0  0  0  0  0  0  0  0  0  # atno 8010 bound_to 7997
  140.6904  143.6497  150.8361 H   0  0  0  0  0  0  0  0  0  0  0  0  # atno 10167 bound_to 10162
  157.5971  131.1056  150.7877 H   0  0  0  0  0  0  0  0  0  0  0  0  # atno 10718 bound_to 10713
  154.8628  135.4224  154.2361 H   0  0  0  0  0  0  0  0  0  0  0  0  # atno 10763 bound_to 10752
  153.3336  135.6989  153.6932 H   0  0  0  0  0  0  0  0  0  0  0  0  # atno 10764 bound_to 10752
  153.5939  135.3549  155.2894 H   0  0  0  0  0  0  0  0  0  0  0  0  # atno 10765 bound_to 10752
  140.7353  134.3575  157.5158 H   0  0  0  0  0  0  0  0  0  0  0  0  # atno 11005 bound_to 11000
  145.8841  140.9344  143.0586 LP  0  0  0  0  0  0  0  0  0  0  0  0  # atno 17320 bound_to 7965
  144.6733  140.0819  143.7469 LP  0  0  0  0  0  0  0  0  0  0  0  0  # atno 17321 bound_to 7965
  140.0209  143.5543  152.2800 LP  0  0  0  0  0  0  0  0  0  0  0  0  # atno 17342 bound_to 10162
  139.6301  144.7643  151.2554 LP  0  0  0  0  0  0  0  0  0  0  0  0  # atno 17343 bound_to 10162
  156.8285  130.5008  149.5334 LP  0  0  0  0  0  0  0  0  0  0  0  0  # atno 17370 bound_to 10713
  156.1036  130.5987  150.9934 LP  0  0  0  0  0  0  0  0  0  0  0  0  # atno 17371 bound_to 10713
  139.8817  134.9045  156.2879 LP  0  0  0  0  0  0  0  0  0  0  0  0  # atno 17394 bound_to 11000
  140.9885  133.7223  156.0778 LP  0  0  0  0  0  0  0  0  0  0  0  0  # atno 17395 bound_to 11000

$$$$
