#       Name:                AV-unprocessed.smi:3178
#       Creating user name   scv26
#       Creation time:       Fri Mar 27 17:57:10 2020


#       File generated by GOLD software.
#

@<TRIPOS>MOLECULE
AV-unprocessed.smi:3178
    40    40     1
SMALL
NO_CHARGES


@<TRIPOS>ATOM
      1 ****        -0.9962   1.5509   2.9651 C.3            1 S1                 0.0000
      2 ****        -1.3188   1.2039   1.6233 O.3            1 S1                 0.0000
      3 ****        -0.7783   2.0073   0.5683 C.3            1 S1                 0.0000
      4 ****        -1.3588   1.3942  -0.7209 C.3            1 S1                 0.0000
      5 ****        -1.2651   3.4657   0.6900 C.3            1 S1                 0.0000
      6 ****         0.7691   1.9516   0.5497 C.3            1 S1                 0.0000
      7 ****         1.2507   0.5761   0.4922 N.am           1 S1                 0.0000
      8 ****         2.3337   0.1528  -0.1776 C.2            1 S1                 0.0000
      9 ****         3.0979   0.9073  -0.7785 O.2            1 S1                 0.0000
     10 ****         2.6013  -1.3545  -0.1664 C.3            1 S1                 0.0000
     11 ****         1.3916  -2.1316  -0.5841 C.2            1 S1                 0.0000
     12 ****         0.7862  -2.2791  -1.8010 C.2            1 S1                 0.0000
     13 ****        -0.3303  -3.1261  -1.5396 C.2            1 S1                 0.0000
     14 ****        -1.3603  -3.6246  -2.5100 C.3            1 S1                 0.0000
     15 ****        -0.4082  -3.4816  -0.2658 N.2            1 S1                 0.0000
     16 ****         0.6458  -2.8711   0.3061 N.pl3          1 S1                 0.0000
     17 ****         0.8406  -2.9655   1.2927 H              1 S1                 0.0000
     18 ****        -1.4727   0.8363   3.6359 H              1 S1                 0.0000
     19 ****        -1.3656   2.5394   3.2355 H              1 S1                 0.0000
     20 ****         0.0752   1.5064   3.1577 H              1 S1                 0.0000
     21 ****        -0.9892   1.9111  -1.6071 H              1 S1                 0.0000
     22 ****        -2.4473   1.4593  -0.7312 H              1 S1                 0.0000
     23 ****        -1.0990   0.3397  -0.8221 H              1 S1                 0.0000
     24 ****        -0.9826   4.0461  -0.1888 H              1 S1                 0.0000
     25 ****        -0.8353   3.9716   1.5542 H              1 S1                 0.0000
     26 ****        -2.3507   3.5136   0.7804 H              1 S1                 0.0000
     27 ****         1.1349   2.5193  -0.3078 H              1 S1                 0.0000
     28 ****         1.1940   2.4341   1.4297 H              1 S1                 0.0000
     29 ****         0.6833  -0.1173   0.9581 H              1 S1                 0.0000
     30 ****         3.4318  -1.5807  -0.8360 H              1 S1                 0.0000
     31 ****         2.9182  -1.6490   0.8347 H              1 S1                 0.0000
     32 ****         1.0920  -1.8402  -2.7392 H              1 S1                 0.0000
     33 ****        -1.4088  -2.9872  -3.3931 H              1 S1                 0.0000
     34 ****        -2.3540  -3.6428  -2.0611 H              1 S1                 0.0000
     35 ****        -1.1252  -4.6356  -2.8427 H              1 S1                 0.0000
     36 ****        -2.3148   1.2360   1.5400 LP             1 S1                 0.0000
     37 ****        -1.0019   0.2671   1.4748 LP             1 S1                 0.0000
     38 ****         2.9261   1.8924  -0.7841 LP             1 S1                 0.0000
     39 ****         3.8907   0.5353  -1.2613 LP             1 S1                 0.0000
     40 ****        -1.0916  -4.0676   0.1696 LP             1 S1                 0.0000
@<TRIPOS>BOND
    1    1    2 1     
    2    1   18 1     
    3    1   19 1     
    4    1   20 1     
    5    2    3 1     
    6    3    4 1     
    7    3    5 1     
    8    3    6 1     
    9    4   21 1     
   10    4   22 1     
   11    4   23 1     
   12    5   24 1     
   13    5   25 1     
   14    5   26 1     
   15    6    7 1     
   16    6   27 1     
   17    6   28 1     
   18    7    8 am    
   19    7   29 1     
   20    8    9 2     
   21    8   10 1     
   22   10   30 1     
   23   10   31 1     
   24   10   11 1     
   25   11   16 1     
   26   11   12 2     
   27   12   13 1     
   28   12   32 1     
   29   13   14 1     
   30   13   15 2     
   31   14   33 1     
   32   14   34 1     
   33   14   35 1     
   34   15   16 1     
   35   16   17 1     
   36    2   36 1     
   37    2   37 1     
   38    9   38 1     
   39    9   39 1     
   40   15   40 1     
@<TRIPOS>SUBSTRUCTURE
      1 S1             1
@<TRIPOS>SET
LONE_PAIRS      STATIC     ATOMS    <user>   **** ""
5 36 37 38 39 40
DONOR_HYDROGENS      STATIC     ATOMS    <user>   **** ""
2 29 17
ATOM$BLUE        STATIC     ATOMS    COLORGROUP SYSTEM
5 36 37 38 39 40
ATOM$RED        STATIC     ATOMS    COLORGROUP SYSTEM
2 29 17
