AV-unprocessed.smi:54|AV-procd|sdf|543|dock2
  -GOLD-   2262016433D 1   1.00000     0.00000
 Structure written by MMmdl.
 44 46  0  0  0  0  0  0  0  0  1 V2000
  152.6572  144.6744  158.5293 C   0  0  0  0  0  0  0  0  0  0  0  0
  151.7903  143.7904  159.4402 C   0  0  0  0  0  0  0  0  0  0  0  0
  152.5034  143.4895  160.7686 C   0  0  0  0  0  0  0  0  0  0  0  0
  151.4088  142.4898  158.7242 C   0  0  0  0  0  0  0  0  0  0  0  0
  150.5271  142.4522  157.8650 O   0  0  0  0  0  0  0  0  0  0  0  0
  152.1624  141.3148  159.1259 N   0  0  0  0  0  0  0  0  0  0  0  0
  152.0347  140.0531  158.6532 C   0  0  0  0  0  0  0  0  0  0  0  0
  151.5942  139.7749  157.4347 N   0  0  0  0  0  0  0  0  0  0  0  0
  151.5463  138.4411  157.1364 C   0  0  0  0  0  0  0  0  0  0  0  0
  151.8925  137.4000  157.9713 C   0  0  0  0  0  0  0  0  0  0  0  0
  151.7056  136.1851  157.3236 N   0  0  0  0  0  0  0  0  0  0  0  0
  151.2654  136.5206  156.1429 C   0  0  0  0  0  0  0  0  0  0  0  0
  151.1529  137.8781  155.9405 N   0  0  0  0  0  0  0  0  0  0  0  0
  150.6787  138.6382  154.7337 C   0  0  2  0  0  0  0  0  0  0  0  0
  150.7907  140.0027  154.9966 O   0  0  0  0  0  0  0  0  0  0  0  0
  149.5536  140.5500  155.4713 C   0  0  1  0  0  0  0  0  0  0  0  0
  149.2152  141.7632  154.5883 C   0  0  0  0  0  0  0  0  0  0  0  0
  149.1147  141.3668  153.2372 O   0  0  0  0  0  0  0  0  0  0  0  0
  148.5102  139.4201  155.3479 C   0  0  2  0  0  0  0  0  0  0  0  0
  148.2229  138.8941  156.6317 O   0  0  0  0  0  0  0  0  0  0  0  0
  149.1926  138.4036  154.4411 C   0  0  2  0  0  0  0  0  0  0  0  0
  148.7316  137.0758  154.6190 O   0  0  0  0  0  0  0  0  0  0  0  0
  152.3597  137.6833  159.2975 C   0  0  0  0  0  0  0  0  0  0  0  0
  152.7057  136.8892  160.1696 O   0  0  0  0  0  0  0  0  0  0  0  0
  152.4021  139.0589  159.5601 N   0  0  0  0  0  0  0  0  0  0  0  0
  151.3487  138.3263  153.9316 H   0  0  0  0  0  0  0  0  0  0  0  0
  149.6531  140.8696  156.5100 H   0  0  0  0  0  0  0  0  0  0  0  0
  147.5688  139.7596  154.9148 H   0  0  0  0  0  0  0  0  0  0  0  0
  149.0264  138.6899  153.4019 H   0  0  0  0  0  0  0  0  0  0  0  0
  152.1521  144.8880  157.5864 H   0  0  0  0  0  0  0  0  0  0  0  0
  153.6104  144.1979  158.2962 H   0  0  0  0  0  0  0  0  0  0  0  0
  152.8746  145.6304  159.0065 H   0  0  0  0  0  0  0  0  0  0  0  0
  150.8731  144.3362  159.6669 H   0  0  0  0  0  0  0  0  0  0  0  0
  151.8957  142.8499  161.4096 H   0  0  0  0  0  0  0  0  0  0  0  0
  152.7032  144.4087  161.3200 H   0  0  0  0  0  0  0  0  0  0  0  0
  153.4588  142.9879  160.6074 H   0  0  0  0  0  0  0  0  0  0  0  0
  152.8717  141.4651  159.8281 H   0  0  0  0  0  0  0  0  0  0  0  0
  151.0161  135.7822  155.3961 H   0  0  0  0  0  0  0  0  0  0  0  0
  148.2942  142.2483  154.9127 H   0  0  0  0  0  0  0  0  0  0  0  0
  150.0105  142.5067  154.6456 H   0  0  0  0  0  0  0  0  0  0  0  0
  149.5158  140.5164  153.1423 H   0  0  0  0  0  0  0  0  0  0  0  0
  147.8030  138.0544  156.5206 H   0  0  0  0  0  0  0  0  0  0  0  0
  148.6308  136.6780  153.7673 H   0  0  0  0  0  0  0  0  0  0  0  0
  152.7267  139.3323  160.4760 H   0  0  0  0  0  0  0  0  0  0  0  0
  1  2  1  0  0  0  0
  1 30  1  0  0  0  0
  1 31  1  0  0  0  0
  1 32  1  0  0  0  0
  2  3  1  0  0  0  0
  2  4  1  0  0  0  0
  2 33  1  0  0  0  0
  3 34  1  0  0  0  0
  3 35  1  0  0  0  0
  3 36  1  0  0  0  0
  4  5  2  0  0  0  0
  4  6  1  0  0  0  0
  6 37  1  0  0  0  0
  6  7  1  0  0  0  0
  7 25  1  0  0  0  0
  7  8  2  0  0  0  0
  8  9  1  0  0  0  0
  9 13  1  0  0  0  0
  9 10  2  0  0  0  0
 10 11  1  0  0  0  0
 10 23  1  0  0  0  0
 11 12  2  0  0  0  0
 12 13  1  0  0  0  0
 12 38  1  0  0  0  0
 13 14  1  0  0  0  0
 14 26  1  0  0  0  0
 14 21  1  0  0  0  0
 14 15  1  0  0  0  0
 15 16  1  0  0  0  0
 16 27  1  0  0  0  0
 16 17  1  0  0  0  0
 16 19  1  0  0  0  0
 17 18  1  0  0  0  0
 17 39  1  0  0  0  0
 17 40  1  0  0  0  0
 18 41  1  0  0  0  0
 19 28  1  0  0  0  0
 19 20  1  0  0  0  0
 19 21  1  0  0  0  0
 20 42  1  0  0  0  0
 21 29  1  0  0  0  0
 21 22  1  0  0  0  0
 22 43  1  0  0  0  0
 23 24  2  0  0  0  0
 23 25  1  0  0  0  0
 25 44  1  0  0  0  0
M  END
> <s_m_source_file>
AV-unprocessed.smi

> <i_m_source_file_index>
54

> <i_lp_mmshare_version>
43012

> <i_f3d_flags>
0

> <s_epik_input>
W0NIM11bQ0hdKFtDSDNdKUMoPU8pW05IXWMobjEpW25IXWMoPU8pYyhjMTIpbltjSF1uMltDQEBIXTNPW0NASF0oW0NIMl1bT0hdKVtDQEBIXShbT0hdKVtDQEhdM1tPSF0=

> <s_epik_cmdline>
J2VwaWtfcHl0aG9uJywgJy1waCcsICc3LjAnLCAnLXRuJywgJzgnLCAnLW1hJywgJzIwMCcsICctbWV0YWxfYmluZGluZycsICctaW1hZScsICc8aW5maWxlLm1hZT4nLCAnLW9tYWUnLCAnPG91dGZpbGUubWFlPic=

> <r_lp_tautomer_probability>
0.85571

> <r_epik_Ionization_Penalty>
0.0316551

> <r_epik_Ionization_Penalty_Charging>
0.0316043

> <r_epik_Ionization_Penalty_Neutral>
5.07097e-05

> <r_epik_State_Penalty>
3.15494e-07

> <r_epik_Charging_Adjusted_Penalty>
0.0316047

> <i_epik_Tot_Q>
0

> <i_epik_Tot_abs_Q>
0

> <r_epik_Metal_State_Penalty>
0.421206

> <b_epik_Metal_Only>
0

> <s_epik_Chemistry_Notes>
This compound contains an acetal/aminal-like group ( X-CH(R)-Y where X, Y are N, S, or O) that may be acid/base labile, releasing an aldehyde.

> <s_lp_Force_Field>
OPLS_2005

> <r_lp_Energy>
46.2687

> <b_lp_Chiralities_Consistent>
1

> <s_lp_Variant>
AV-unprocessed.smi:54-15

> <Gold.Version>
5.8.1

> <Gold.Id.Protein>
6NUR|6NUR_protein|mol2

> <Gold.PLP.Fitness>
48.2889

> <Gold.PLP.PLP>
-37.2023

> <Gold.PLP.part.hbond>
-5.9406

> <Gold.PLP.part.metal>
0.0000

> <Gold.PLP.part.buried>
-4.8266

> <Gold.PLP.part.nonpolar>
-26.3720

> <Gold.PLP.part.repulsive>
0.3607

> <Gold.PLP.ligand.clash>
0.1218

> <Gold.PLP.ligand.torsion>
0.7392

> <Gold.PLP.Chemscore.Hbond>
4.1810

> <Gold.PLP.Chemscore.CHOScore>
0.0000

> <Gold.PLP.Chemscore.Metal>
0.0000

> <Gold.Chemscore.Hbonds>
donor molecule, donor type, donor heavy atom, donor atom, acceptor molecule, acceptor atom, score
      L1  H    18    41       P1  7957  0.17
      L1  H    22    43       P1  7948  1.00
      P1  H  6896  6909       L1    24  1.00
      P1  H  7989  7998       L1    15  1.00
      P1  H  8011  8017       L1    18  1.00

> <Gold.PLP.Chemscore.Internal.Correction>
0.1439

> <Gold.Rescore>
     Score         DG    S(hbond)    S(metal)    S(lipo)     H(rot)  DE(clash)    DE(int)     intcor
      9.17     -14.63       3.56        0.00      65.12       4.05       0.04       5.41       ----

> <Gold.Chemscore.Fitness>
9.1728

> <Gold.Chemscore.DG>
-14.6261

> <Gold.Chemscore.ZeroCoef>
-5.4800

> <Gold.Chemscore.Hbond>
3.5607

> <Gold.Chemscore.Metal>
0.0000

> <Gold.Chemscore.Lipo>
65.1236

> <Gold.Chemscore.Internal_Hbond>
0.0000

> <Gold.Chemscore.DEClash>
0.0441

> <Gold.Chemscore.DEInternal>
5.4091

> <Gold.Chemscore.Rot>
4.0493

> <Gold.Chemscore.Internal.Correction>
   9.000000E+99

> <Gold.Chemscore.Hbonds>
donor molecule, donor type, donor heavy atom, donor atom, acceptor molecule, acceptor atom, score
      L1  H    18    41       P1  7957  0.17
      L1  H    22    43       P1  7948  0.97
      P1  H  6896  6909       L1    24  0.94
      P1  H  7989  7998       L1    15  0.67
      P1  H  8011  8017       L1    18  0.53

> <Gold.Chemscore.Hbond.Weighted>
-11.8928

> <Gold.Chemscore.Metal.Weighted>
-0.0000

> <Gold.Chemscore.Lipo.Weighted>
-7.6195

> <Gold.Chemscore.Internal_Hbond.Weighted>
0.0000

> <Gold.Chemscore.DEClash.Weighted>
0.0441

> <Gold.Chemscore.DEInternal.Weighted>
5.4091

> <Gold.Chemscore.Rot.Weighted>
10.3662

> <Gold.Chemscore.Internal.Correction.Weighted>
   9.000000E+99

> <Gold.Protein.RotatedTorsions>
[ 6907 6896 6895 6894 ] final  148.86 input  -60.11 | X-H torsion
[ 7974 7965 7964 7962 ] final -171.09 input  175.53 | X-H torsion
[ 8008 7997 7996 7995 ] final  126.21 input   59.86 | X-H torsion
[ 10167 10162 10161 10158 ] final -100.27 input  -65.29 | X-H torsion
[ 10718 10713 10712 10709 ] final   61.64 input   66.30 | X-H torsion
[ 10763 10752 10751 10750 ] final -173.78 input  -60.55 | X-H torsion
[ 11005 11000 10999 10996 ] final   84.40 input  -57.11 | X-H torsion

> <Gold.Protein.ActiveResidues>
 VAL166  LYS551  ARG553  GLY616  TRP617  ASP618  TYR619  PRO620  LYS621  CYS622 
 ASP623  PHE694  ASN695  SER759  ASP760  ASP761  ALA762  ILE779  LEU786  VAL792 
 PHE793  MET794  SER795  GLU796  ALA797  LYS798  CYS799  TRP800  GLU811  SER814 

> <Gold.Protein.RotatedAtoms>
  152.1358  133.4434  159.4742 H   0  0  0  0  0  0  0  0  0  0  0  0  # atno 6907 bound_to 6896
  150.6882  134.2365  159.4464 H   0  0  0  0  0  0  0  0  0  0  0  0  # atno 6908 bound_to 6896
  152.0252  134.9799  160.0622 H   0  0  0  0  0  0  0  0  0  0  0  0  # atno 6909 bound_to 6896
  144.7161  140.1974  143.6342 H   0  0  0  0  0  0  0  0  0  0  0  0  # atno 7974 bound_to 7965
  156.2857  140.2698  156.2074 H   0  0  0  0  0  0  0  0  0  0  0  0  # atno 8008 bound_to 7997
  155.0299  140.0386  157.2488 H   0  0  0  0  0  0  0  0  0  0  0  0  # atno 8009 bound_to 7997
  154.7363  140.2716  155.6417 H   0  0  0  0  0  0  0  0  0  0  0  0  # atno 8010 bound_to 7997
  140.2536  143.3455  152.0691 H   0  0  0  0  0  0  0  0  0  0  0  0  # atno 10167 bound_to 10162
  157.5843  130.9006  149.9487 H   0  0  0  0  0  0  0  0  0  0  0  0  # atno 10718 bound_to 10713
  154.6039  135.2857  155.0505 H   0  0  0  0  0  0  0  0  0  0  0  0  # atno 10763 bound_to 10752
  154.1760  135.6464  153.5025 H   0  0  0  0  0  0  0  0  0  0  0  0  # atno 10764 bound_to 10752
  153.0168  135.5412  154.6768 H   0  0  0  0  0  0  0  0  0  0  0  0  # atno 10765 bound_to 10752
  139.9001  134.8214  156.2440 H   0  0  0  0  0  0  0  0  0  0  0  0  # atno 11005 bound_to 11000
  145.8711  139.2273  143.1660 LP  0  0  0  0  0  0  0  0  0  0  0  0  # atno 17320 bound_to 7965
  146.0084  140.8458  142.9983 LP  0  0  0  0  0  0  0  0  0  0  0  0  # atno 17321 bound_to 7965
  139.5038  144.6763  151.6119 LP  0  0  0  0  0  0  0  0  0  0  0  0  # atno 17342 bound_to 10162
  140.6021  143.9591  150.6393 LP  0  0  0  0  0  0  0  0  0  0  0  0  # atno 17343 bound_to 10162
  156.0890  130.3665  150.0431 LP  0  0  0  0  0  0  0  0  0  0  0  0  # atno 17370 bound_to 10713
  156.8565  130.9477  151.3621 LP  0  0  0  0  0  0  0  0  0  0  0  0  # atno 17371 bound_to 10713
  141.0266  133.7011  156.1359 LP  0  0  0  0  0  0  0  0  0  0  0  0  # atno 17394 bound_to 11000
  140.7157  134.4413  157.5578 LP  0  0  0  0  0  0  0  0  0  0  0  0  # atno 17395 bound_to 11000

$$$$
