AV-unprocessed.smi:379|AV-procd|sdf|2459|dock5
  -GOLD-   2262022403D 1   1.00000     0.00000
 Structure written by MMmdl.
 39 40  0  0  0  0  0  0  0  0  1 V2000
  147.0505  142.1610  154.0476 C   0  0  0  0  0  0  0  0  0  0  0  0
  147.4606  141.5872  155.4120 C   0  0  0  0  0  0  0  0  0  0  0  0
  148.1641  140.2168  155.3366 C   0  0  1  0  0  0  0  0  0  0  0  0
  148.0058  139.5785  153.9496 C   0  0  0  0  0  0  0  0  0  0  0  0
  149.5879  140.3436  155.6434 N   0  0  0  0  0  0  0  0  0  0  0  0
  150.1921  139.9274  156.7675 C   0  0  0  0  0  0  0  0  0  0  0  0
  149.5991  139.3601  157.6862 O   0  0  0  0  0  0  0  0  0  0  0  0
  151.7017  140.1964  156.8549 C   0  0  0  0  0  0  0  0  0  0  0  0
  152.0758  141.0386  158.0119 N   0  0  0  0  0  0  0  0  0  0  0  0
  153.0852  140.5662  158.8897 C   0  0  0  0  0  0  0  0  0  0  0  0
  153.6199  139.4704  158.7104 O   0  0  0  0  0  0  0  0  0  0  0  0
  153.4398  141.4669  159.9838 C   0  0  0  0  0  0  0  0  0  0  0  0
  154.4731  141.0412  160.8683 C   0  0  0  0  0  0  0  0  0  0  0  0
  155.3180  140.7192  161.5908 N   0  0  0  0  0  0  0  0  0  0  0  0
  152.8144  142.6520  160.1386 C   0  0  0  0  0  0  0  0  0  0  0  0
  151.8088  143.0751  159.2970 N   0  0  0  0  0  0  0  0  0  0  0  0
  151.2683  144.4023  159.3853 C   0  0  0  0  0  0  0  0  0  0  0  0
  152.1749  145.5833  159.1146 C   0  0  0  0  0  0  0  0  0  0  0  0
  151.6817  145.3231  160.5171 C   0  0  0  0  0  0  0  0  0  0  0  0
  151.4488  142.2978  158.1742 C   0  0  0  0  0  0  0  0  0  0  0  0
  150.6230  142.7064  157.3540 O   0  0  0  0  0  0  0  0  0  0  0  0
  146.6309  143.1608  154.1600 H   0  0  0  0  0  0  0  0  0  0  0  0
  146.2949  141.5428  153.5623 H   0  0  0  0  0  0  0  0  0  0  0  0
  147.9071  142.2331  153.3770 H   0  0  0  0  0  0  0  0  0  0  0  0
  148.1276  142.3000  155.8986 H   0  0  0  0  0  0  0  0  0  0  0  0
  146.5788  141.5159  156.0501 H   0  0  0  0  0  0  0  0  0  0  0  0
  147.6863  139.5482  156.0550 H   0  0  0  0  0  0  0  0  0  0  0  0
  146.9536  139.4369  153.7012 H   0  0  0  0  0  0  0  0  0  0  0  0
  148.4869  138.6007  153.9092 H   0  0  0  0  0  0  0  0  0  0  0  0
  148.4500  140.2009  153.1718 H   0  0  0  0  0  0  0  0  0  0  0  0
  150.1596  140.7977  154.9458 H   0  0  0  0  0  0  0  0  0  0  0  0
  152.2173  139.2355  156.8731 H   0  0  0  0  0  0  0  0  0  0  0  0
  152.0390  140.6596  155.9257 H   0  0  0  0  0  0  0  0  0  0  0  0
  153.1076  143.2947  160.9562 H   0  0  0  0  0  0  0  0  0  0  0  0
  150.2406  144.5074  159.0419 H   0  0  0  0  0  0  0  0  0  0  0  0
  153.2265  145.3880  158.9131 H   0  0  0  0  0  0  0  0  0  0  0  0
  151.7486  146.4303  158.5807 H   0  0  0  0  0  0  0  0  0  0  0  0
  150.9253  145.9947  160.9180 H   0  0  0  0  0  0  0  0  0  0  0  0
  152.4096  144.9580  161.2394 H   0  0  0  0  0  0  0  0  0  0  0  0
  1  2  1  0  0  0  0
  1 22  1  0  0  0  0
  1 23  1  0  0  0  0
  1 24  1  0  0  0  0
  2  3  1  0  0  0  0
  2 25  1  0  0  0  0
  2 26  1  0  0  0  0
  3  4  1  0  0  0  0
  3  5  1  0  0  0  0
  3 27  1  0  0  0  0
  4 28  1  0  0  0  0
  4 29  1  0  0  0  0
  4 30  1  0  0  0  0
  5  6  1  0  0  0  0
  5 31  1  0  0  0  0
  6  7  2  0  0  0  0
  6  8  1  0  0  0  0
  8  9  1  0  0  0  0
  8 32  1  0  0  0  0
  8 33  1  0  0  0  0
  9 20  1  0  0  0  0
  9 10  1  0  0  0  0
 10 11  2  0  0  0  0
 10 12  1  0  0  0  0
 12 13  1  0  0  0  0
 12 15  2  0  0  0  0
 13 14  3  0  0  0  0
 15 16  1  0  0  0  0
 15 34  1  0  0  0  0
 16 17  1  0  0  0  0
 16 20  1  0  0  0  0
 17 19  1  0  0  0  0
 17 18  1  0  0  0  0
 17 35  1  0  0  0  0
 18 19  1  0  0  0  0
 18 36  1  0  0  0  0
 18 37  1  0  0  0  0
 19 38  1  0  0  0  0
 19 39  1  0  0  0  0
 20 21  2  0  0  0  0
M  END
> <s_m_source_file>
AV-unprocessed.smi

> <i_m_source_file_index>
379

> <i_lp_mmshare_version>
43012

> <i_f3d_flags>
0

> <s_epik_input>
W0NIM11bQ0gyXVtDQEhdKFtDSDNdKVtOSF1DKD1PKVtDSDJdbjFjKD1PKWMoQyNOKVtjSF1uKGMxPU8pW0NIXTJbQ0gyXVtDSDJdMg==

> <s_epik_cmdline>
J2VwaWtfcHl0aG9uJywgJy1waCcsICc3LjAnLCAnLXRuJywgJzgnLCAnLW1hJywgJzIwMCcsICctbWV0YWxfYmluZGluZycsICctaW1hZScsICc8aW5maWxlLm1hZT4nLCAnLW9tYWUnLCAnPG91dGZpbGUubWFlPic=

> <r_lp_tautomer_probability>
1

> <r_epik_Ionization_Penalty>
1.93863e-08

> <r_epik_Ionization_Penalty_Charging>
8.45512e-11

> <r_epik_Ionization_Penalty_Neutral>
1.93017e-08

> <r_epik_State_Penalty>
-0

> <r_epik_Charging_Adjusted_Penalty>
8.45512e-11

> <i_epik_Tot_Q>
0

> <i_epik_Tot_abs_Q>
0

> <r_epik_Metal_State_Penalty>
-0

> <b_epik_Metal_Only>
0

> <s_lp_Force_Field>
OPLS_2005

> <r_lp_Energy>
29.1248

> <b_lp_Chiralities_Consistent>
1

> <s_lp_Variant>
AV-unprocessed.smi:379-2

> <Gold.Version>
5.8.1

> <Gold.Id.Protein>
6NUR|6NUR_protein|mol2

> <Gold.PLP.Fitness>
42.9121

> <Gold.PLP.PLP>
-41.5506

> <Gold.PLP.part.hbond>
-2.0000

> <Gold.PLP.part.metal>
0.0000

> <Gold.PLP.part.buried>
-4.4630

> <Gold.PLP.part.nonpolar>
-35.3740

> <Gold.PLP.part.repulsive>
0.4291

> <Gold.PLP.ligand.clash>
0.0000

> <Gold.PLP.ligand.torsion>
0.9351

> <Gold.PLP.Chemscore.Hbond>
1.0000

> <Gold.PLP.Chemscore.CHOScore>
0.0000

> <Gold.PLP.Chemscore.Metal>
0.0000

> <Gold.Chemscore.Hbonds>
donor molecule, donor type, donor heavy atom, donor atom, acceptor molecule, acceptor atom, score
      P1  H  7997  8009       L1    11  0.93

> <Gold.PLP.Chemscore.Internal.Correction>
0.2318

> <Gold.Rescore>
     Score         DG    S(hbond)    S(metal)    S(lipo)     H(rot)  DE(clash)    DE(int)     intcor
      8.70     -11.30       0.28        0.00      85.12       1.98       0.35       2.25       ----

> <Gold.Chemscore.Fitness>
8.7013

> <Gold.Chemscore.DG>
-11.3031

> <Gold.Chemscore.ZeroCoef>
-5.4800

> <Gold.Chemscore.Hbond>
0.2773

> <Gold.Chemscore.Metal>
0.0000

> <Gold.Chemscore.Lipo>
85.1199

> <Gold.Chemscore.Internal_Hbond>
0.0000

> <Gold.Chemscore.DEClash>
0.3521

> <Gold.Chemscore.DEInternal>
2.2496

> <Gold.Chemscore.Rot>
1.9774

> <Gold.Chemscore.Internal.Correction>
   9.000000E+99

> <Gold.Chemscore.Hbonds>
donor molecule, donor type, donor heavy atom, donor atom, acceptor molecule, acceptor atom, score
      P1  H  7997  8009       L1    11  0.19

> <Gold.Chemscore.Hbond.Weighted>
-0.9263

> <Gold.Chemscore.Metal.Weighted>
-0.0000

> <Gold.Chemscore.Lipo.Weighted>
-9.9590

> <Gold.Chemscore.Internal_Hbond.Weighted>
0.0000

> <Gold.Chemscore.DEClash.Weighted>
0.3521

> <Gold.Chemscore.DEInternal.Weighted>
2.2496

> <Gold.Chemscore.Rot.Weighted>
5.0623

> <Gold.Chemscore.Internal.Correction.Weighted>
   9.000000E+99

> <Gold.Protein.RotatedTorsions>
[ 6907 6896 6895 6894 ] final  159.17 input  -60.11 | X-H torsion
[ 7974 7965 7964 7962 ] final -123.29 input  175.53 | X-H torsion
[ 8008 7997 7996 7995 ] final  125.82 input   59.86 | X-H torsion
[ 10167 10162 10161 10158 ] final  175.12 input  -65.29 | X-H torsion
[ 10718 10713 10712 10709 ] final -172.22 input   66.30 | X-H torsion
[ 10763 10752 10751 10750 ] final  -40.77 input  -60.55 | X-H torsion
[ 11005 11000 10999 10996 ] final   95.69 input  -57.11 | X-H torsion

> <Gold.Protein.ActiveResidues>
 VAL166  LYS551  ARG553  GLY616  TRP617  ASP618  TYR619  PRO620  LYS621  CYS622 
 ASP623  PHE694  ASN695  SER759  ASP760  ASP761  ALA762  ILE779  LEU786  VAL792 
 PHE793  MET794  SER795  GLU796  ALA797  LYS798  CYS799  TRP800  GLU811  SER814 

> <Gold.Protein.RotatedAtoms>
  151.9896  133.3786  159.4138 H   0  0  0  0  0  0  0  0  0  0  0  0  # atno 6907 bound_to 6896
  150.6923  134.3951  159.5103 H   0  0  0  0  0  0  0  0  0  0  0  0  # atno 6908 bound_to 6896
  152.1682  134.8855  160.0587 H   0  0  0  0  0  0  0  0  0  0  0  0  # atno 6909 bound_to 6896
  145.0203  140.7982  143.4385 H   0  0  0  0  0  0  0  0  0  0  0  0  # atno 7974 bound_to 7965
  156.2845  140.2707  156.2010 H   0  0  0  0  0  0  0  0  0  0  0  0  # atno 8008 bound_to 7997
  155.0361  140.0386  157.2510 H   0  0  0  0  0  0  0  0  0  0  0  0  # atno 8009 bound_to 7997
  154.7314  140.2707  155.6458 H   0  0  0  0  0  0  0  0  0  0  0  0  # atno 8010 bound_to 7997
  139.5166  144.3068  152.0328 H   0  0  0  0  0  0  0  0  0  0  0  0  # atno 10167 bound_to 10162
  156.7524  130.9383  151.3115 H   0  0  0  0  0  0  0  0  0  0  0  0  # atno 10718 bound_to 10713
  153.9515  135.6750  153.4744 H   0  0  0  0  0  0  0  0  0  0  0  0  # atno 10763 bound_to 10752
  153.0882  135.4888  154.8635 H   0  0  0  0  0  0  0  0  0  0  0  0  # atno 10764 bound_to 10752
  154.7323  135.3141  154.8830 H   0  0  0  0  0  0  0  0  0  0  0  0  # atno 10765 bound_to 10752
  139.8787  134.8912  156.4049 H   0  0  0  0  0  0  0  0  0  0  0  0  # atno 11005 bound_to 11000
  145.1904  139.2304  143.5245 LP  0  0  0  0  0  0  0  0  0  0  0  0  # atno 17320 bound_to 7965
  146.3484  140.1699  142.8590 LP  0  0  0  0  0  0  0  0  0  0  0  0  # atno 17321 bound_to 7965
  140.2514  144.4165  150.6220 LP  0  0  0  0  0  0  0  0  0  0  0  0  # atno 17342 bound_to 10162
  140.6222  143.2177  151.6670 LP  0  0  0  0  0  0  0  0  0  0  0  0  # atno 17343 bound_to 10162
  157.6771  130.9105  150.0177 LP  0  0  0  0  0  0  0  0  0  0  0  0  # atno 17370 bound_to 10713
  156.1392  130.3642  149.9608 LP  0  0  0  0  0  0  0  0  0  0  0  0  # atno 17371 bound_to 10713
  140.9241  133.7624  155.9943 LP  0  0  0  0  0  0  0  0  0  0  0  0  # atno 17394 bound_to 11000
  140.8406  134.3071  157.5315 LP  0  0  0  0  0  0  0  0  0  0  0  0  # atno 17395 bound_to 11000

$$$$
