AV-unprocessed.smi:261|AV-procd|sdf|1984|dock6
  -GOLD-   2262021163D 1   1.00000     0.00000
 Structure written by MMmdl.
 51 54  0  0  0  0  0  0  0  0  1 V2000
  148.8243  131.3845  153.8679 C   0  0  0  0  0  0  0  0  0  0  0  0
  149.1855  132.7167  153.5424 O   0  0  0  0  0  0  0  0  0  0  0  0
  149.3659  133.5487  154.6791 C   0  0  2  0  0  0  0  0  0  0  0  0
  148.0894  134.2785  155.1084 C   0  0  0  0  0  0  0  0  0  0  0  0
  148.5941  135.5279  155.8502 C   0  0  1  0  0  0  0  0  0  0  0  0
  148.7514  135.2731  157.3599 C   0  0  0  0  0  0  0  0  0  0  0  0
  148.0027  136.0193  158.1751 N   0  0  0  0  0  0  0  0  0  0  0  0
  149.5207  134.4130  157.7859 O   0  0  0  0  0  0  0  0  0  0  0  0
  149.8799  135.8064  155.2052 N   0  0  0  0  0  0  0  0  0  0  0  0
  150.4719  137.0328  155.2046 C   0  0  0  0  0  0  0  0  0  0  0  0
  151.6785  137.1662  154.5917 N   0  0  0  0  0  0  0  0  0  0  0  0
  152.3013  138.3465  154.5560 C   0  0  0  0  0  0  0  0  0  0  0  0
  151.9048  139.5127  155.0643 N   0  0  0  0  0  0  0  0  0  0  0  0
  150.6957  139.3939  155.6826 C   0  0  0  0  0  0  0  0  0  0  0  0
  149.9165  138.2058  155.8005 C   0  0  0  0  0  0  0  0  0  0  0  0
  148.7470  138.4903  156.4988 N   0  0  0  0  0  0  0  0  0  0  0  0
  148.8261  139.7641  156.7668 C   0  0  0  0  0  0  0  0  0  0  0  0
  149.9621  140.3876  156.3071 N   0  0  0  0  0  0  0  0  0  0  0  0
  150.3066  141.7923  156.4533 C   0  0  0  0  0  0  0  0  0  0  0  0
  150.0838  142.3513  157.8767 C   0  0  2  0  0  0  0  0  0  0  0  0
  148.9137  143.1449  157.9283 O   0  0  0  0  0  0  0  0  0  0  0  0
  151.2857  143.1137  158.4815 C   0  0  2  0  0  0  0  0  0  0  0  0
  151.0262  143.8306  159.8047 C   0  0  0  0  0  0  0  0  0  0  0  0
  152.2132  144.7708  159.8858 C   0  0  0  0  0  0  0  0  0  0  0  0
  152.5615  145.0454  158.4183 C   0  0  0  0  0  0  0  0  0  0  0  0
  151.7731  144.1494  157.6414 O   0  0  0  0  0  0  0  0  0  0  0  0
  150.3172  134.7029  154.3609 C   0  0  0  0  0  0  0  0  0  0  0  0
  149.7698  132.9771  155.5171 H   0  0  0  0  0  0  0  0  0  0  0  0
  147.8920  136.3479  155.6888 H   0  0  0  0  0  0  0  0  0  0  0  0
  148.7378  130.7973  152.9537 H   0  0  0  0  0  0  0  0  0  0  0  0
  147.8634  131.3434  154.3813 H   0  0  0  0  0  0  0  0  0  0  0  0
  149.5792  130.9134  154.4987 H   0  0  0  0  0  0  0  0  0  0  0  0
  147.5284  134.5867  154.2248 H   0  0  0  0  0  0  0  0  0  0  0  0
  147.4293  133.6528  155.7108 H   0  0  0  0  0  0  0  0  0  0  0  0
  148.0606  135.8878  159.1743 H   0  0  0  0  0  0  0  0  0  0  0  0
  147.3745  136.7078  157.7868 H   0  0  0  0  0  0  0  0  0  0  0  0
  153.2529  138.3575  154.0456 H   0  0  0  0  0  0  0  0  0  0  0  0
  148.0498  140.2880  157.3048 H   0  0  0  0  0  0  0  0  0  0  0  0
  151.3489  141.9200  156.1587 H   0  0  0  0  0  0  0  0  0  0  0  0
  149.7184  142.3677  155.7375 H   0  0  0  0  0  0  0  0  0  0  0  0
  149.8882  141.4967  158.5253 H   0  0  0  0  0  0  0  0  0  0  0  0
  148.7882  143.5497  157.0840 H   0  0  0  0  0  0  0  0  0  0  0  0
  152.1045  142.4064  158.6273 H   0  0  0  0  0  0  0  0  0  0  0  0
  150.1032  144.4096  159.7632 H   0  0  0  0  0  0  0  0  0  0  0  0
  150.9643  143.1488  160.6532 H   0  0  0  0  0  0  0  0  0  0  0  0
  151.9870  145.6805  160.4424 H   0  0  0  0  0  0  0  0  0  0  0  0
  153.0499  144.2740  160.3786 H   0  0  0  0  0  0  0  0  0  0  0  0
  152.3309  146.0718  158.1324 H   0  0  0  0  0  0  0  0  0  0  0  0
  153.6212  144.8708  158.2286 H   0  0  0  0  0  0  0  0  0  0  0  0
  151.3509  134.4189  154.5602 H   0  0  0  0  0  0  0  0  0  0  0  0
  150.2303  134.9994  153.3144 H   0  0  0  0  0  0  0  0  0  0  0  0
  1  2  1  0  0  0  0
  1 30  1  0  0  0  0
  1 31  1  0  0  0  0
  1 32  1  0  0  0  0
  2  3  1  0  0  0  0
  3 28  1  0  0  0  0
  3 27  1  0  0  0  0
  3  4  1  0  0  0  0
  4  5  1  0  0  0  0
  4 33  1  0  0  0  0
  4 34  1  0  0  0  0
  5 29  1  0  0  0  0
  5  6  1  0  0  0  0
  5  9  1  0  0  0  0
  6  7  1  0  0  0  0
  6  8  2  0  0  0  0
  7 35  1  0  0  0  0
  7 36  1  0  0  0  0
  9 10  1  0  0  0  0
  9 27  1  0  0  0  0
 10 15  1  0  0  0  0
 10 11  2  0  0  0  0
 11 12  1  0  0  0  0
 12 13  2  0  0  0  0
 12 37  1  0  0  0  0
 13 14  1  0  0  0  0
 14 18  1  0  0  0  0
 14 15  2  0  0  0  0
 15 16  1  0  0  0  0
 16 17  2  0  0  0  0
 17 18  1  0  0  0  0
 17 38  1  0  0  0  0
 18 19  1  0  0  0  0
 19 20  1  0  0  0  0
 19 39  1  0  0  0  0
 19 40  1  0  0  0  0
 20 21  1  0  0  0  0
 20 22  1  0  0  0  0
 20 41  1  0  0  0  0
 21 42  1  0  0  0  0
 22 26  1  0  0  0  0
 22 23  1  0  0  0  0
 22 43  1  0  0  0  0
 23 24  1  0  0  0  0
 23 44  1  0  0  0  0
 23 45  1  0  0  0  0
 24 25  1  0  0  0  0
 24 46  1  0  0  0  0
 24 47  1  0  0  0  0
 25 26  1  0  0  0  0
 25 48  1  0  0  0  0
 25 49  1  0  0  0  0
 27 50  1  0  0  0  0
 27 51  1  0  0  0  0
M  END
> <s_m_source_file>
AV-unprocessed.smi

> <i_m_source_file_index>
261

> <i_lp_mmshare_version>
43012

> <i_f3d_flags>
0

> <s_epik_input>
W0NIM11PW0NASF0xW0NIMl1bQ0BASF0oQyg9TylbTkgyXSlOKFtDSDJdMSljKG5bY0hdbjIpYyhjMjMpbltjSF1uM1tDSDJdW0NASF0oW09IXSlbQ0BASF00W0NIMl1bQ0gyXVtDSDJdTzQ=

> <s_epik_cmdline>
J2VwaWtfcHl0aG9uJywgJy1waCcsICc3LjAnLCAnLXRuJywgJzgnLCAnLW1hJywgJzIwMCcsICctbWV0YWxfYmluZGluZycsICctaW1hZScsICc8aW5maWxlLm1hZT4nLCAnLW9tYWUnLCAnPG91dGZpbGUubWFlPic=

> <r_lp_tautomer_probability>
1

> <r_epik_Ionization_Penalty>
0.000713824

> <r_epik_Ionization_Penalty_Charging>
0

> <r_epik_Ionization_Penalty_Neutral>
0.000713824

> <r_epik_State_Penalty>
0.000402132

> <r_epik_Charging_Adjusted_Penalty>
0.000402132

> <i_epik_Tot_Q>
0

> <i_epik_Tot_abs_Q>
0

> <r_epik_Metal_State_Penalty>
-0

> <b_epik_Metal_Only>
0

> <s_lp_Force_Field>
OPLS_2005

> <r_lp_Energy>
44.2831

> <b_lp_Chiralities_Consistent>
1

> <s_lp_Variant>
AV-unprocessed.smi:261-2

> <Gold.Version>
5.8.1

> <Gold.Id.Protein>
6NUR|6NUR_protein|mol2

> <Gold.PLP.Fitness>
48.6565

> <Gold.PLP.PLP>
-39.2321

> <Gold.PLP.part.hbond>
-4.9711

> <Gold.PLP.part.metal>
0.0000

> <Gold.PLP.part.buried>
-7.5180

> <Gold.PLP.part.nonpolar>
-26.6686

> <Gold.PLP.part.repulsive>
0.5010

> <Gold.PLP.ligand.clash>
0.0000

> <Gold.PLP.ligand.torsion>
1.3731

> <Gold.PLP.Chemscore.Hbond>
4.0000

> <Gold.PLP.Chemscore.CHOScore>
0.0000

> <Gold.PLP.Chemscore.Metal>
0.0000

> <Gold.Chemscore.Hbonds>
donor molecule, donor type, donor heavy atom, donor atom, acceptor molecule, acceptor atom, score
      L1  H    21    42       P1  8028  1.00
      P1  H  6896  6908       L1     8  1.00
      P1  H  7989  7998       L1    13  0.86
      P1  H 10752 10764       L1    11  1.00

> <Gold.PLP.Chemscore.Internal.Correction>
0.1705

> <Gold.Rescore>
     Score         DG    S(hbond)    S(metal)    S(lipo)     H(rot)  DE(clash)    DE(int)     intcor
     14.17     -17.02       2.83        0.00      87.39       3.18       0.48       2.37       ----

> <Gold.Chemscore.Fitness>
14.1740

> <Gold.Chemscore.DG>
-17.0221

> <Gold.Chemscore.ZeroCoef>
-5.4800

> <Gold.Chemscore.Hbond>
2.8343

> <Gold.Chemscore.Metal>
0.0000

> <Gold.Chemscore.Lipo>
87.3856

> <Gold.Chemscore.Internal_Hbond>
0.0000

> <Gold.Chemscore.DEClash>
0.4818

> <Gold.Chemscore.DEInternal>
2.3663

> <Gold.Chemscore.Rot>
3.1831

> <Gold.Chemscore.Internal.Correction>
   9.000000E+99

> <Gold.Chemscore.Hbonds>
donor molecule, donor type, donor heavy atom, donor atom, acceptor molecule, acceptor atom, score
      L1  H    21    42       P1  8028  0.30
      P1  H  6896  6908       L1     8  0.95
      P1  H  7989  7998       L1    13  0.31
      P1  H 10752 10764       L1    11  0.78

> <Gold.Chemscore.Hbond.Weighted>
-9.4666

> <Gold.Chemscore.Metal.Weighted>
-0.0000

> <Gold.Chemscore.Lipo.Weighted>
-10.2241

> <Gold.Chemscore.Internal_Hbond.Weighted>
0.0000

> <Gold.Chemscore.DEClash.Weighted>
0.4818

> <Gold.Chemscore.DEInternal.Weighted>
2.3663

> <Gold.Chemscore.Rot.Weighted>
8.1486

> <Gold.Chemscore.Internal.Correction.Weighted>
   9.000000E+99

> <Gold.Protein.RotatedTorsions>
[ 6907 6896 6895 6894 ] final  129.15 input  -60.11 | X-H torsion
[ 7974 7965 7964 7962 ] final  -28.79 input  175.53 | X-H torsion
[ 8008 7997 7996 7995 ] final  151.22 input   59.86 | X-H torsion
[ 10167 10162 10161 10158 ] final  128.53 input  -65.29 | X-H torsion
[ 10718 10713 10712 10709 ] final  -46.25 input   66.30 | X-H torsion
[ 10763 10752 10751 10750 ] final  -69.26 input  -60.55 | X-H torsion
[ 11005 11000 10999 10996 ] final -135.61 input  -57.11 | X-H torsion

> <Gold.Protein.ActiveResidues>
 VAL166  LYS551  ARG553  GLY616  TRP617  ASP618  TYR619  PRO620  LYS621  CYS622 
 ASP623  PHE694  ASN695  SER759  ASP760  ASP761  ALA762  ILE779  LEU786  VAL792 
 PHE793  MET794  SER795  GLU796  ALA797  LYS798  CYS799  TRP800  GLU811  SER814 

> <Gold.Protein.RotatedAtoms>
  152.3651  133.6347  159.6044 H   0  0  0  0  0  0  0  0  0  0  0  0  # atno 6907 bound_to 6896
  150.7628  133.9360  159.3450 H   0  0  0  0  0  0  0  0  0  0  0  0  # atno 6908 bound_to 6896
  151.7192  135.0898  160.0332 H   0  0  0  0  0  0  0  0  0  0  0  0  # atno 6909 bound_to 6896
  146.1263  140.5328  142.8713 H   0  0  0  0  0  0  0  0  0  0  0  0  # atno 7974 bound_to 7965
  156.2683  140.2053  156.6141 H   0  0  0  0  0  0  0  0  0  0  0  0  # atno 8008 bound_to 7997
  154.6808  140.0540  157.0288 H   0  0  0  0  0  0  0  0  0  0  0  0  # atno 8009 bound_to 7997
  155.1003  140.3205  155.4552 H   0  0  0  0  0  0  0  0  0  0  0  0  # atno 8010 bound_to 7997
  139.5523  144.6822  151.4287 H   0  0  0  0  0  0  0  0  0  0  0  0  # atno 10167 bound_to 10162
  156.2202  130.4165  149.9003 H   0  0  0  0  0  0  0  0  0  0  0  0  # atno 10718 bound_to 10713
  154.4009  135.6031  153.5897 H   0  0  0  0  0  0  0  0  0  0  0  0  # atno 10763 bound_to 10752
  152.9788  135.5906  154.4185 H   0  0  0  0  0  0  0  0  0  0  0  0  # atno 10764 bound_to 10752
  154.3983  135.2842  155.2090 H   0  0  0  0  0  0  0  0  0  0  0  0  # atno 10765 bound_to 10752
  140.8882  134.1845  157.4546 H   0  0  0  0  0  0  0  0  0  0  0  0  # atno 11005 bound_to 11000
  144.7646  140.5500  143.6712 LP  0  0  0  0  0  0  0  0  0  0  0  0  # atno 17320 bound_to 7965
  145.5358  139.1475  143.3474 LP  0  0  0  0  0  0  0  0  0  0  0  0  # atno 17321 bound_to 7965
  140.6788  143.8129  150.7093 LP  0  0  0  0  0  0  0  0  0  0  0  0  # atno 17342 bound_to 10162
  140.1576  143.4303  152.2089 LP  0  0  0  0  0  0  0  0  0  0  0  0  # atno 17343 bound_to 10162
  156.6652  130.8798  151.3553 LP  0  0  0  0  0  0  0  0  0  0  0  0  # atno 17370 bound_to 10713
  157.7083  130.9411  150.1005 LP  0  0  0  0  0  0  0  0  0  0  0  0  # atno 17371 bound_to 10713
  139.8726  134.9847  156.5250 LP  0  0  0  0  0  0  0  0  0  0  0  0  # atno 17394 bound_to 11000
  140.8379  133.8228  155.9046 LP  0  0  0  0  0  0  0  0  0  0  0  0  # atno 17395 bound_to 11000

$$$$
