#       Name:                AV-unprocessed.smi:53
#       Creating user name   scv26
#       Creation time:       Thu Mar 26 16:39:06 2020


#       File generated by GOLD software.
#

@<TRIPOS>MOLECULE
AV-unprocessed.smi:53
    41    42     1
SMALL
NO_CHARGES


@<TRIPOS>ATOM
      1 ****        -4.9225  -0.3883   0.5429 N.pl3          1 S1                 0.0000
      2 ****        -3.5861  -0.4887   0.5524 C.2            1 S1                 0.0000
      3 ****        -2.7664   0.6474   0.1965 C.2            1 S1                 0.0000
      4 ****        -1.4278   0.4679   0.2316 C.2            1 S1                 0.0000
      5 ****        -0.8528  -0.7412   0.5967 N.am           1 S1                 0.0000
      6 ****         0.6521  -0.9108   0.6181 C.3            1 S1                 0.0000
      7 ****         1.2304   0.2967   1.0150 O.3            1 S1                 0.0000
      8 ****         2.3912   0.5416   0.2312 C.3            1 S1                 0.0000
      9 ****         2.7942   2.0260   0.2820 C.3            1 S1                 0.0000
     10 ****         4.0278   2.2205  -0.3764 O.3            1 S1                 0.0000
     11 ****         2.0361  -0.0415  -1.1441 C.3            1 S1                 0.0000
     12 ****         1.2771   0.8791  -1.9108 O.3            1 S1                 0.0000
     13 ****         1.2366  -1.2851  -0.7632 C.3            1 S1                 0.0000
     14 ****         0.2936  -1.6712  -1.7499 O.3            1 S1                 0.0000
     15 ****        -1.6822  -1.8405   0.9263 C.2            1 S1                 0.0000
     16 ****        -1.2173  -2.9407   1.2222 O.2            1 S1                 0.0000
     17 ****        -3.0359  -1.6397   0.8881 N.2            1 S1                 0.0000
     18 ****         0.8783  -1.6520   1.3865 H              1 S1                 0.0000
     19 ****         3.1933  -0.0577   0.6667 H              1 S1                 0.0000
     20 ****         2.9303  -0.2967  -1.7137 H              1 S1                 0.0000
     21 ****         1.9258  -2.1155  -0.6038 H              1 S1                 0.0000
     22 ****        -5.4931  -1.1838   0.7896 H              1 S1                 0.0000
     23 ****        -5.3576   0.4873   0.2899 H              1 S1                 0.0000
     24 ****        -3.1715   1.6077  -0.0888 H              1 S1                 0.0000
     25 ****        -0.8000   1.3047  -0.0365 H              1 S1                 0.0000
     26 ****         2.0324   2.6680  -0.1604 H              1 S1                 0.0000
     27 ****         2.9094   2.3426   1.3187 H              1 S1                 0.0000
     28 ****         4.2540   3.1368  -0.3261 H              1 S1                 0.0000
     29 ****         0.4589   1.0352  -1.4649 H              1 S1                 0.0000
     30 ****        -0.2071  -2.3998  -1.4151 H              1 S1                 0.0000
     31 ****         1.4844   0.2440   1.9808 LP             1 S1                 0.0000
     32 ****         0.5750   1.0404   0.8829 LP             1 S1                 0.0000
     33 ****         3.9457   1.9456  -1.3343 LP             1 S1                 0.0000
     34 ****         4.7371   1.6732   0.0679 LP             1 S1                 0.0000
     35 ****         1.0999   0.4978  -2.8180 LP             1 S1                 0.0000
     36 ****         1.7808   1.7381  -2.0028 LP             1 S1                 0.0000
     37 ****         0.7712  -1.9448  -2.5848 LP             1 S1                 0.0000
     38 ****        -0.3174  -0.9055  -1.9511 LP             1 S1                 0.0000
     39 ****        -0.2269  -3.0780   1.2347 LP             1 S1                 0.0000
     40 ****        -1.8300  -3.6974   1.4502 LP             1 S1                 0.0000
     41 ****        -3.6369  -2.4027   1.1263 LP             1 S1                 0.0000
@<TRIPOS>BOND
    1    1    2 1     
    2    1   22 1     
    3    1   23 1     
    4    2   17 2     
    5    2    3 1     
    6    3    4 2     
    7    3   24 1     
    8    4    5 1     
    9    4   25 1     
   10    5    6 1     
   11    5   15 am    
   12    6   18 1     
   13    6   13 1     
   14    6    7 1     
   15    7    8 1     
   16    8   19 1     
   17    8    9 1     
   18    8   11 1     
   19    9   10 1     
   20    9   26 1     
   21    9   27 1     
   22   10   28 1     
   23   11   20 1     
   24   11   12 1     
   25   11   13 1     
   26   12   29 1     
   27   13   21 1     
   28   13   14 1     
   29   14   30 1     
   30   15   16 2     
   31   15   17 1     
   32    7   31 1     
   33    7   32 1     
   34   10   33 1     
   35   10   34 1     
   36   12   35 1     
   37   12   36 1     
   38   14   37 1     
   39   14   38 1     
   40   16   39 1     
   41   16   40 1     
   42   17   41 1     
@<TRIPOS>SUBSTRUCTURE
      1 S1             1
@<TRIPOS>SET
LONE_PAIRS      STATIC     ATOMS    <user>   **** ""
11 31 32 33 34 35 36 37 38 39 40 41
DONOR_HYDROGENS      STATIC     ATOMS    <user>   **** ""
5 22 23 28 29 30
ATOM$BLUE        STATIC     ATOMS    COLORGROUP SYSTEM
11 31 32 33 34 35 36 37 38 39 40 41
ATOM$RED        STATIC     ATOMS    COLORGROUP SYSTEM
5 22 23 28 29 30
