AV-unprocessed.smi:3129|AV-procd|sdf|11924|dock10
  -GOLD-   2272017303D 1   1.00000     0.00000
 Structure written by MMmdl.
 39 39  0  0  0  0  0  0  0  0  1 V2000
  151.0024  138.4146  154.1842 C   0  0  0  0  0  0  0  0  0  0  0  0
  149.5537  138.9247  154.2063 C   0  0  0  0  0  0  0  0  0  0  0  0
  149.5073  140.3913  154.6695 C   0  0  0  0  0  0  0  0  0  0  0  0
  148.6652  137.9974  155.0617 C   0  0  0  0  0  0  0  0  0  0  0  0
  148.4795  136.6846  154.4502 N   0  0  0  0  0  0  0  0  0  0  0  0
  147.7754  135.6693  154.9752 C   0  0  0  0  0  0  0  0  0  0  0  0
  147.1977  135.7351  156.0607 O   0  0  0  0  0  0  0  0  0  0  0  0
  147.7355  134.3673  154.1573 C   0  0  2  0  0  0  0  0  0  0  0  0
  149.1442  133.7655  154.0290 C   0  0  0  0  0  0  0  0  0  0  0  0
  147.1420  134.5357  152.8185 N   0  0  0  0  0  0  0  0  0  0  0  0
  145.8125  135.1359  152.8220 C   0  0  0  0  0  0  0  0  0  0  0  0
  145.2524  135.1467  151.3932 C   0  0  0  0  0  0  0  0  0  0  0  0
  145.2115  133.8113  150.8298 N   0  0  0  0  0  0  0  0  0  0  0  0
  144.1105  133.0818  150.4333 C   0  0  0  0  0  0  0  0  0  0  0  0
  144.5644  131.8782  149.9754 C   0  0  0  0  0  0  0  0  0  0  0  0
  145.9757  131.9661  150.1354 C   0  0  0  0  0  0  0  0  0  0  0  0
  146.3598  133.1238  150.6488 N   0  0  0  0  0  0  0  0  0  0  0  0
  151.4413  138.4253  155.1824 H   0  0  0  0  0  0  0  0  0  0  0  0
  151.6275  139.0325  153.5391 H   0  0  0  0  0  0  0  0  0  0  0  0
  151.0545  137.3923  153.8086 H   0  0  0  0  0  0  0  0  0  0  0  0
  149.1835  138.8915  153.1806 H   0  0  0  0  0  0  0  0  0  0  0  0
  149.8188  140.4868  155.7101 H   0  0  0  0  0  0  0  0  0  0  0  0
  148.5048  140.8098  154.5819 H   0  0  0  0  0  0  0  0  0  0  0  0
  150.1678  141.0145  154.0661 H   0  0  0  0  0  0  0  0  0  0  0  0
  149.1343  137.8360  156.0327 H   0  0  0  0  0  0  0  0  0  0  0  0
  147.7057  138.4749  155.2684 H   0  0  0  0  0  0  0  0  0  0  0  0
  148.9269  136.5338  153.5575 H   0  0  0  0  0  0  0  0  0  0  0  0
  147.1248  133.6450  154.7022 H   0  0  0  0  0  0  0  0  0  0  0  0
  149.6020  133.6163  155.0078 H   0  0  0  0  0  0  0  0  0  0  0  0
  149.8061  134.4074  153.4460 H   0  0  0  0  0  0  0  0  0  0  0  0
  149.1093  132.7939  153.5352 H   0  0  0  0  0  0  0  0  0  0  0  0
  147.7524  135.0566  152.2048 H   0  0  0  0  0  0  0  0  0  0  0  0
  145.1531  134.5657  153.4781 H   0  0  0  0  0  0  0  0  0  0  0  0
  145.8530  136.1575  153.2014 H   0  0  0  0  0  0  0  0  0  0  0  0
  144.2414  135.5566  151.3818 H   0  0  0  0  0  0  0  0  0  0  0  0
  145.8596  135.7817  150.7458 H   0  0  0  0  0  0  0  0  0  0  0  0
  143.1074  133.4749  150.5107 H   0  0  0  0  0  0  0  0  0  0  0  0
  143.9778  131.0593  149.5861 H   0  0  0  0  0  0  0  0  0  0  0  0
  146.7271  131.2281  149.8965 H   0  0  0  0  0  0  0  0  0  0  0  0
  1  2  1  0  0  0  0
  1 18  1  0  0  0  0
  1 19  1  0  0  0  0
  1 20  1  0  0  0  0
  2  3  1  0  0  0  0
  2  4  1  0  0  0  0
  2 21  1  0  0  0  0
  3 22  1  0  0  0  0
  3 23  1  0  0  0  0
  3 24  1  0  0  0  0
  4  5  1  0  0  0  0
  4 25  1  0  0  0  0
  4 26  1  0  0  0  0
  5  6  1  0  0  0  0
  5 27  1  0  0  0  0
  6  7  2  0  0  0  0
  6  8  1  0  0  0  0
  8  9  1  0  0  0  0
  8 10  1  0  0  0  0
  8 28  1  0  0  0  0
  9 29  1  0  0  0  0
  9 30  1  0  0  0  0
  9 31  1  0  0  0  0
 10 11  1  0  0  0  0
 10 32  1  0  0  0  0
 11 12  1  0  0  0  0
 11 33  1  0  0  0  0
 11 34  1  0  0  0  0
 12 13  1  0  0  0  0
 12 35  1  0  0  0  0
 12 36  1  0  0  0  0
 13 17  1  0  0  0  0
 13 14  1  0  0  0  0
 14 15  2  0  0  0  0
 14 37  1  0  0  0  0
 15 16  1  0  0  0  0
 15 38  1  0  0  0  0
 16 17  2  0  0  0  0
 16 39  1  0  0  0  0
M  END
> <s_m_source_file>
AV-unprocessed.smi

> <i_m_source_file_index>
3129

> <i_lp_mmshare_version>
43012

> <i_f3d_flags>
0

> <s_epik_input>
W0NIM11bQ0hdKFtDSDNdKVtDSDJdW05IXUMoPU8pW0NASF0oW0NIM10pW05IXVtDSDJdW0NIMl1uMVtjSF1bY0hdW2NIXW4x

> <s_epik_cmdline>
J2VwaWtfcHl0aG9uJywgJy1waCcsICc3LjAnLCAnLXRuJywgJzgnLCAnLW1hJywgJzIwMCcsICctbWV0YWxfYmluZGluZycsICctaW1hZScsICc8aW5maWxlLm1hZT4nLCAnLW9tYWUnLCAnPG91dGZpbGUubWFlPic=

> <r_lp_tautomer_probability>
1

> <r_epik_Ionization_Penalty>
0.724007

> <r_epik_Ionization_Penalty_Charging>
0

> <r_epik_Ionization_Penalty_Neutral>
0.724007

> <r_epik_State_Penalty>
0.74758

> <r_epik_Charging_Adjusted_Penalty>
0.74758

> <i_epik_Tot_Q>
0

> <i_epik_Tot_abs_Q>
0

> <r_epik_Metal_State_Penalty>
0.746851

> <b_epik_Metal_Only>
0

> <s_lp_Force_Field>
OPLS_2005

> <r_lp_Energy>
5.79034

> <b_lp_Chiralities_Consistent>
1

> <s_lp_Variant>
AV-unprocessed.smi:3129-3

> <Gold.Version>
5.8.1

> <Gold.Id.Protein>
6NUR|6NUR_protein|mol2

> <Gold.PLP.Fitness>
42.7721

> <Gold.PLP.PLP>
-30.9079

> <Gold.PLP.part.hbond>
-2.0000

> <Gold.PLP.part.metal>
0.0000

> <Gold.PLP.part.buried>
-3.7112

> <Gold.PLP.part.nonpolar>
-26.1143

> <Gold.PLP.part.repulsive>
0.2257

> <Gold.PLP.ligand.clash>
0.0000

> <Gold.PLP.ligand.torsion>
0.1012

> <Gold.PLP.Chemscore.Hbond>
2.0000

> <Gold.PLP.Chemscore.CHOScore>
2.0000

> <Gold.PLP.Chemscore.Metal>
0.0000

> <Gold.Chemscore.Hbonds>
donor molecule, donor type, donor heavy atom, donor atom, acceptor molecule, acceptor atom, score
      L1  H     5    27       P1  7948  1.00
      L1  H    10    32       P1  7948  1.00
      L1  C    14    37       P1 10186  1.00
      L1  C    16    39       P1 10747  1.00

> <Gold.PLP.Chemscore.Internal.Correction>
0.0667

> <Gold.Rescore>
     Score         DG    S(hbond)    S(metal)    S(lipo)     H(rot)  DE(clash)    DE(int)     intcor
     13.12     -15.00       1.98        0.00      71.54       2.13       0.07       1.81       ----

> <Gold.Chemscore.Fitness>
13.1250

> <Gold.Chemscore.DG>
-15.0001

> <Gold.Chemscore.ZeroCoef>
-5.4800

> <Gold.Chemscore.Hbond>
1.9802

> <Gold.Chemscore.Metal>
0.0000

> <Gold.Chemscore.Lipo>
71.5425

> <Gold.Chemscore.Internal_Hbond>
0.0000

> <Gold.Chemscore.DEClash>
0.0690

> <Gold.Chemscore.DEInternal>
1.8062

> <Gold.Chemscore.Rot>
2.1345

> <Gold.Chemscore.Internal.Correction>
   9.000000E+99

> <Gold.Chemscore.Hbonds>
donor molecule, donor type, donor heavy atom, donor atom, acceptor molecule, acceptor atom, score
      L1  H     5    27       P1  7948  0.98
      L1  H    10    32       P1  7948  0.89

> <Gold.Chemscore.Hbond.Weighted>
-6.6139

> <Gold.Chemscore.Metal.Weighted>
-0.0000

> <Gold.Chemscore.Lipo.Weighted>
-8.3705

> <Gold.Chemscore.Internal_Hbond.Weighted>
0.0000

> <Gold.Chemscore.DEClash.Weighted>
0.0690

> <Gold.Chemscore.DEInternal.Weighted>
1.8062

> <Gold.Chemscore.Rot.Weighted>
5.4642

> <Gold.Chemscore.Internal.Correction.Weighted>
   9.000000E+99

> <Gold.Protein.RotatedTorsions>
[ 6907 6896 6895 6894 ] final   93.84 input  -60.11 | X-H torsion
[ 7974 7965 7964 7962 ] final   86.31 input  175.53 | X-H torsion
[ 8008 7997 7996 7995 ] final -173.16 input   59.86 | X-H torsion
[ 10167 10162 10161 10158 ] final  167.21 input  -65.29 | X-H torsion
[ 10718 10713 10712 10709 ] final   -3.57 input   66.30 | X-H torsion
[ 10763 10752 10751 10750 ] final    9.58 input  -60.55 | X-H torsion
[ 11005 11000 10999 10996 ] final   -9.09 input  -57.11 | X-H torsion

> <Gold.Protein.ActiveResidues>
 VAL166  LYS551  ARG553  GLY616  TRP617  ASP618  TYR619  PRO620  LYS621  CYS622 
 ASP623  PHE694  ASN695  SER759  ASP760  ASP761  ALA762  ILE779  LEU786  VAL792 
 PHE793  MET794  SER795  GLU796  ALA797  LYS798  CYS799  TRP800  GLU811  SER814 

> <Gold.Protein.RotatedAtoms>
  152.5451  134.1286  159.8429 H   0  0  0  0  0  0  0  0  0  0  0  0  # atno 6907 bound_to 6896
  151.1334  133.5014  159.2606 H   0  0  0  0  0  0  0  0  0  0  0  0  # atno 6908 bound_to 6896
  151.1650  135.0301  159.8781 H   0  0  0  0  0  0  0  0  0  0  0  0  # atno 6909 bound_to 6896
  145.5739  139.2317  143.2391 H   0  0  0  0  0  0  0  0  0  0  0  0  # atno 7974 bound_to 7965
  155.9539  140.1131  157.0953 H   0  0  0  0  0  0  0  0  0  0  0  0  # atno 8008 bound_to 7997
  154.4116  140.1195  156.5156 H   0  0  0  0  0  0  0  0  0  0  0  0  # atno 8009 bound_to 7997
  155.6807  140.3473  155.4856 H   0  0  0  0  0  0  0  0  0  0  0  0  # atno 8010 bound_to 7997
  139.4940  144.3946  151.9479 H   0  0  0  0  0  0  0  0  0  0  0  0  # atno 10167 bound_to 10162
  156.7742  130.5309  149.5762 H   0  0  0  0  0  0  0  0  0  0  0  0  # atno 10718 bound_to 10713
  153.2125  135.6871  153.8097 H   0  0  0  0  0  0  0  0  0  0  0  0  # atno 10763 bound_to 10752
  153.7324  135.3250  155.3289 H   0  0  0  0  0  0  0  0  0  0  0  0  # atno 10764 bound_to 10752
  154.8229  135.4639  154.0938 H   0  0  0  0  0  0  0  0  0  0  0  0  # atno 10765 bound_to 10752
  140.7305  133.8753  155.8889 H   0  0  0  0  0  0  0  0  0  0  0  0  # atno 11005 bound_to 11000
  146.1765  140.6565  142.9209 LP  0  0  0  0  0  0  0  0  0  0  0  0  # atno 17320 bound_to 7965
  144.7425  140.4980  143.6859 LP  0  0  0  0  0  0  0  0  0  0  0  0  # atno 17321 bound_to 7965
  140.3384  144.3233  150.5972 LP  0  0  0  0  0  0  0  0  0  0  0  0  # atno 17342 bound_to 10162
  140.5587  143.2195  151.7803 LP  0  0  0  0  0  0  0  0  0  0  0  0  # atno 17343 bound_to 10162
  156.1259  130.6143  151.0262 LP  0  0  0  0  0  0  0  0  0  0  0  0  # atno 17370 bound_to 10713
  157.6677  131.0868  150.7689 LP  0  0  0  0  0  0  0  0  0  0  0  0  # atno 17371 bound_to 10713
  140.9925  134.1259  157.4394 LP  0  0  0  0  0  0  0  0  0  0  0  0  # atno 17394 bound_to 11000
  139.8827  135.0045  156.6251 LP  0  0  0  0  0  0  0  0  0  0  0  0  # atno 17395 bound_to 11000

$$$$
