AV-unprocessed.smi:378|AV-procd|sdf|2457|dock7
  -GOLD-   2262022393D 1   1.00000     0.00000
 Structure written by MMmdl.
 34 35  0  0  0  0  0  0  0  0  1 V2000
  145.3551  144.9956  152.2996 N   0  0  0  0  0  0  0  0  0  0  0  0
  145.3570  144.3043  153.2272 C   0  0  0  0  0  0  0  0  0  0  0  0
  145.3593  143.4263  154.4078 C   0  0  0  0  0  0  0  0  0  0  0  0
  146.3004  142.2205  154.2616 C   0  0  0  0  0  0  0  0  0  0  0  0
  147.6654  142.5444  154.6597 N   0  0  0  0  0  0  0  0  0  0  0  0
  148.6497  141.6489  154.8262 C   0  0  0  0  0  0  0  0  0  0  0  0
  148.4881  140.4368  154.6763 O   0  0  0  0  0  0  0  0  0  0  0  0
  150.0172  142.2212  155.2296 C   0  0  0  0  0  0  0  0  0  0  0  0
  150.7650  141.3497  156.1625 N   0  0  0  0  0  0  0  0  0  0  0  0
  151.1583  140.0584  155.7267 C   0  0  0  0  0  0  0  0  0  0  0  0
  150.8625  139.6497  154.6025 O   0  0  0  0  0  0  0  0  0  0  0  0
  151.9359  139.2801  156.6881 C   0  0  0  0  0  0  0  0  0  0  0  0
  152.3785  137.9895  156.2752 C   0  0  0  0  0  0  0  0  0  0  0  0
  152.7238  136.9312  155.9581 N   0  0  0  0  0  0  0  0  0  0  0  0
  152.2245  139.7729  157.9102 C   0  0  0  0  0  0  0  0  0  0  0  0
  151.7994  141.0152  158.3281 N   0  0  0  0  0  0  0  0  0  0  0  0
  152.2500  141.5825  159.5677 C   0  0  0  0  0  0  0  0  0  0  0  0
  153.6045  142.2553  159.6175 C   0  0  0  0  0  0  0  0  0  0  0  0
  153.3927  140.9428  160.3322 C   0  0  0  0  0  0  0  0  0  0  0  0
  151.0995  141.8610  157.4401 C   0  0  0  0  0  0  0  0  0  0  0  0
  150.7978  143.0140  157.7597 O   0  0  0  0  0  0  0  0  0  0  0  0
  145.6621  144.0314  155.2622 H   0  0  0  0  0  0  0  0  0  0  0  0
  144.3346  143.1040  154.5946 H   0  0  0  0  0  0  0  0  0  0  0  0
  145.9454  141.3961  154.8806 H   0  0  0  0  0  0  0  0  0  0  0  0
  146.2934  141.8605  153.2314 H   0  0  0  0  0  0  0  0  0  0  0  0
  147.8805  143.5204  154.8061 H   0  0  0  0  0  0  0  0  0  0  0  0
  150.6041  142.4061  154.3279 H   0  0  0  0  0  0  0  0  0  0  0  0
  149.8606  143.2153  155.6505 H   0  0  0  0  0  0  0  0  0  0  0  0
  152.8077  139.1704  158.5920 H   0  0  0  0  0  0  0  0  0  0  0  0
  151.4726  142.0410  160.1764 H   0  0  0  0  0  0  0  0  0  0  0  0
  154.2188  142.2392  158.7192 H   0  0  0  0  0  0  0  0  0  0  0  0
  153.6970  143.1510  160.2283 H   0  0  0  0  0  0  0  0  0  0  0  0
  153.3405  140.9628  161.4188 H   0  0  0  0  0  0  0  0  0  0  0  0
  153.8705  140.0630  159.9054 H   0  0  0  0  0  0  0  0  0  0  0  0
  1  2  3  0  0  0  0
  2  3  1  0  0  0  0
  3  4  1  0  0  0  0
  3 22  1  0  0  0  0
  3 23  1  0  0  0  0
  4  5  1  0  0  0  0
  4 24  1  0  0  0  0
  4 25  1  0  0  0  0
  5  6  1  0  0  0  0
  5 26  1  0  0  0  0
  6  7  2  0  0  0  0
  6  8  1  0  0  0  0
  8  9  1  0  0  0  0
  8 27  1  0  0  0  0
  8 28  1  0  0  0  0
  9 20  1  0  0  0  0
  9 10  1  0  0  0  0
 10 11  2  0  0  0  0
 10 12  1  0  0  0  0
 12 13  1  0  0  0  0
 12 15  2  0  0  0  0
 13 14  3  0  0  0  0
 15 16  1  0  0  0  0
 15 29  1  0  0  0  0
 16 17  1  0  0  0  0
 16 20  1  0  0  0  0
 17 19  1  0  0  0  0
 17 18  1  0  0  0  0
 17 30  1  0  0  0  0
 18 19  1  0  0  0  0
 18 31  1  0  0  0  0
 18 32  1  0  0  0  0
 19 33  1  0  0  0  0
 19 34  1  0  0  0  0
 20 21  2  0  0  0  0
M  END
> <s_m_source_file>
AV-unprocessed.smi

> <i_m_source_file_index>
378

> <i_lp_mmshare_version>
43012

> <i_f3d_flags>
0

> <s_epik_input>
TiNDW0NIMl1bQ0gyXVtOSF1DKD1PKVtDSDJdbjFjKD1PKWMoQyNOKVtjSF1uKGMxPU8pW0NIXTJbQ0gyXVtDSDJdMg==

> <s_epik_cmdline>
J2VwaWtfcHl0aG9uJywgJy1waCcsICc3LjAnLCAnLXRuJywgJzgnLCAnLW1hJywgJzIwMCcsICctbWV0YWxfYmluZGluZycsICctaW1hZScsICc8aW5maWxlLm1hZT4nLCAnLW9tYWUnLCAnPG91dGZpbGUubWFlPic=

> <r_lp_tautomer_probability>
1

> <r_epik_Ionization_Penalty>
1.80062e-07

> <r_epik_Ionization_Penalty_Charging>
6.75485e-11

> <r_epik_Ionization_Penalty_Neutral>
1.79994e-07

> <r_epik_State_Penalty>
-0

> <r_epik_Charging_Adjusted_Penalty>
6.75485e-11

> <i_epik_Tot_Q>
0

> <i_epik_Tot_abs_Q>
0

> <r_epik_Metal_State_Penalty>
-0

> <b_epik_Metal_Only>
0

> <s_lp_Force_Field>
OPLS_2005

> <r_lp_Energy>
28.3727

> <b_lp_Chiralities_Consistent>
1

> <s_lp_Variant>
AV-unprocessed.smi:378-1

> <Gold.Version>
5.8.1

> <Gold.Id.Protein>
6NUR|6NUR_protein|mol2

> <Gold.PLP.Fitness>
45.7153

> <Gold.PLP.PLP>
-39.3847

> <Gold.PLP.part.hbond>
-3.4918

> <Gold.PLP.part.metal>
0.0000

> <Gold.PLP.part.buried>
-4.3779

> <Gold.PLP.part.nonpolar>
-33.6029

> <Gold.PLP.part.repulsive>
0.6693

> <Gold.PLP.ligand.clash>
0.0000

> <Gold.PLP.ligand.torsion>
1.0903

> <Gold.PLP.Chemscore.Hbond>
2.7600

> <Gold.PLP.Chemscore.CHOScore>
0.0000

> <Gold.PLP.Chemscore.Metal>
0.0000

> <Gold.Chemscore.Hbonds>
donor molecule, donor type, donor heavy atom, donor atom, acceptor molecule, acceptor atom, score
      L1  H     5    26       P1  8028  0.99
      P1  H  7989  7998       L1    11  1.00
      P1  H 10752 10765       L1    14  0.78

> <Gold.PLP.Chemscore.Internal.Correction>
0.2312

> <Gold.Rescore>
     Score         DG    S(hbond)    S(metal)    S(lipo)     H(rot)  DE(clash)    DE(int)     intcor
      8.74     -12.40       1.99        0.00      57.08       2.50       0.09       3.57       ----

> <Gold.Chemscore.Fitness>
8.7387

> <Gold.Chemscore.DG>
-12.4019

> <Gold.Chemscore.ZeroCoef>
-5.4800

> <Gold.Chemscore.Hbond>
1.9887

> <Gold.Chemscore.Metal>
0.0000

> <Gold.Chemscore.Lipo>
57.0781

> <Gold.Chemscore.Internal_Hbond>
0.0000

> <Gold.Chemscore.DEClash>
0.0920

> <Gold.Chemscore.DEInternal>
3.5711

> <Gold.Chemscore.Rot>
2.4994

> <Gold.Chemscore.Internal.Correction>
   9.000000E+99

> <Gold.Chemscore.Hbonds>
donor molecule, donor type, donor heavy atom, donor atom, acceptor molecule, acceptor atom, score
      L1  H     5    26       P1  8028  0.56
      P1  H  7989  7998       L1    11  0.45
      P1  H 10752 10765       L1    14  0.78

> <Gold.Chemscore.Hbond.Weighted>
-6.6422

> <Gold.Chemscore.Metal.Weighted>
-0.0000

> <Gold.Chemscore.Lipo.Weighted>
-6.6781

> <Gold.Chemscore.Internal_Hbond.Weighted>
0.0000

> <Gold.Chemscore.DEClash.Weighted>
0.0920

> <Gold.Chemscore.DEInternal.Weighted>
3.5711

> <Gold.Chemscore.Rot.Weighted>
6.3984

> <Gold.Chemscore.Internal.Correction.Weighted>
   9.000000E+99

> <Gold.Protein.RotatedTorsions>
[ 6907 6896 6895 6894 ] final -101.22 input  -60.11 | X-H torsion
[ 7974 7965 7964 7962 ] final   61.06 input  175.53 | X-H torsion
[ 8008 7997 7996 7995 ] final   51.50 input   59.86 | X-H torsion
[ 10167 10162 10161 10158 ] final  -57.06 input  -65.29 | X-H torsion
[ 10718 10713 10712 10709 ] final -164.25 input   66.30 | X-H torsion
[ 10763 10752 10751 10750 ] final -147.28 input  -60.55 | X-H torsion
[ 11005 11000 10999 10996 ] final  -25.04 input  -57.11 | X-H torsion

> <Gold.Protein.ActiveResidues>
 VAL166  LYS551  ARG553  GLY616  TRP617  ASP618  TYR619  PRO620  LYS621  CYS622 
 ASP623  PHE694  ASN695  SER759  ASP760  ASP761  ALA762  ILE779  LEU786  VAL792 
 PHE793  MET794  SER795  GLU796  ALA797  LYS798  CYS799  TRP800  GLU811  SER814 

> <Gold.Protein.RotatedAtoms>
  150.7146  134.0768  159.3883 H   0  0  0  0  0  0  0  0  0  0  0  0  # atno 6907 bound_to 6896
  151.8751  135.0472  160.0492 H   0  0  0  0  0  0  0  0  0  0  0  0  # atno 6908 bound_to 6896
  152.2612  133.5263  159.5419 H   0  0  0  0  0  0  0  0  0  0  0  0  # atno 6909 bound_to 6896
  145.8890  139.3497  143.0660 H   0  0  0  0  0  0  0  0  0  0  0  0  # atno 7974 bound_to 7965
  155.4363  140.3452  155.4285 H   0  0  0  0  0  0  0  0  0  0  0  0  # atno 8008 bound_to 7997
  156.1306  140.1513  156.9102 H   0  0  0  0  0  0  0  0  0  0  0  0  # atno 8009 bound_to 7997
  154.4892  140.0846  156.7535 H   0  0  0  0  0  0  0  0  0  0  0  0  # atno 8010 bound_to 7997
  140.6281  143.2447  151.5312 H   0  0  0  0  0  0  0  0  0  0  0  0  # atno 10167 bound_to 10162
  156.6363  130.8950  151.2987 H   0  0  0  0  0  0  0  0  0  0  0  0  # atno 10718 bound_to 10713
  154.8294  135.3364  154.6793 H   0  0  0  0  0  0  0  0  0  0  0  0  # atno 10763 bound_to 10752
  153.7414  135.6945  153.4970 H   0  0  0  0  0  0  0  0  0  0  0  0  # atno 10764 bound_to 10752
  153.2241  135.4439  155.0473 H   0  0  0  0  0  0  0  0  0  0  0  0  # atno 10765 bound_to 10752
  140.8901  133.7594  156.0411 H   0  0  0  0  0  0  0  0  0  0  0  0  # atno 11005 bound_to 11000
  145.8931  140.9291  143.0542 LP  0  0  0  0  0  0  0  0  0  0  0  0  # atno 17320 bound_to 7965
  144.6730  140.0932  143.7464 LP  0  0  0  0  0  0  0  0  0  0  0  0  # atno 17321 bound_to 7965
  139.5498  144.2425  152.1510 LP  0  0  0  0  0  0  0  0  0  0  0  0  # atno 17342 bound_to 10162
  140.1661  144.4980  150.6605 LP  0  0  0  0  0  0  0  0  0  0  0  0  # atno 17343 bound_to 10162
  157.7185  130.9527  150.1345 LP  0  0  0  0  0  0  0  0  0  0  0  0  # atno 17370 bound_to 10713
  156.2194  130.3673  149.8573 LP  0  0  0  0  0  0  0  0  0  0  0  0  # atno 17371 bound_to 10713
  140.8357  134.3126  157.5332 LP  0  0  0  0  0  0  0  0  0  0  0  0  # atno 17394 bound_to 11000
  139.8729  134.9388  156.3724 LP  0  0  0  0  0  0  0  0  0  0  0  0  # atno 17395 bound_to 11000

$$$$
