AV-unprocessed.smi:2417|AV-procd|sdf|9548|dock7
  -GOLD-   2272013183D 1   1.00000     0.00000
 Structure written by MMmdl.
 38 39  0  0  0  0  0  0  0  0  1 V2000
  147.7081  142.1850  153.6036 C   0  0  0  0  0  0  0  0  0  0  0  0
  148.8691  141.3520  154.1176 C   0  0  0  0  0  0  0  0  0  0  0  0
  149.7600  142.0165  154.9656 N   0  0  0  0  0  0  0  0  0  0  0  0
  150.7797  141.3869  155.4509 C   0  0  0  0  0  0  0  0  0  0  0  0
  151.0257  140.0376  155.1488 N   0  0  0  0  0  0  0  0  0  0  0  0
  152.2203  139.4385  155.7665 C   0  0  0  0  0  0  0  0  0  0  0  0
  152.0060  139.1149  157.2624 C   0  0  2  0  0  0  0  0  0  0  0  0
  150.7528  138.4911  157.4596 O   0  0  0  0  0  0  0  0  0  0  0  0
  152.0572  140.3622  158.1610 C   0  0  0  0  0  0  0  0  0  0  0  0
  152.9506  140.1439  159.2464 O   0  0  0  0  0  0  0  0  0  0  0  0
  152.9907  141.0781  160.2587 C   0  0  0  0  0  0  0  0  0  0  0  0
  153.7543  140.7518  161.3987 C   0  0  0  0  0  0  0  0  0  0  0  0
  153.8515  141.6463  162.4819 C   0  0  0  0  0  0  0  0  0  0  0  0
  153.1816  142.8827  162.4348 C   0  0  0  0  0  0  0  0  0  0  0  0
  153.2737  143.7444  163.4751 F   0  0  0  0  0  0  0  0  0  0  0  0
  152.4160  143.2216  161.3037 C   0  0  0  0  0  0  0  0  0  0  0  0
  152.3191  142.3266  160.2201 C   0  0  0  0  0  0  0  0  0  0  0  0
  150.2031  139.3127  154.3367 C   0  0  0  0  0  0  0  0  0  0  0  0
  150.4214  138.1252  154.0894 O   0  0  0  0  0  0  0  0  0  0  0  0
  149.0485  140.0434  153.7891 C   0  0  0  0  0  0  0  0  0  0  0  0
  148.1109  139.2677  152.8722 C   0  0  0  0  0  0  0  0  0  0  0  0
  147.7275  142.2381  152.5147 H   0  0  0  0  0  0  0  0  0  0  0  0
  147.7498  143.2047  153.9882 H   0  0  0  0  0  0  0  0  0  0  0  0
  146.7584  141.7501  153.9160 H   0  0  0  0  0  0  0  0  0  0  0  0
  151.5013  141.8584  156.1203 H   0  0  0  0  0  0  0  0  0  0  0  0
  152.4582  138.5179  155.2302 H   0  0  0  0  0  0  0  0  0  0  0  0
  153.1077  140.0613  155.6347 H   0  0  0  0  0  0  0  0  0  0  0  0
  152.7713  138.4223  157.6148 H   0  0  0  0  0  0  0  0  0  0  0  0
  150.4072  138.7662  158.2951 H   0  0  0  0  0  0  0  0  0  0  0  0
  152.3489  141.2390  157.5800 H   0  0  0  0  0  0  0  0  0  0  0  0
  151.0571  140.5456  158.5575 H   0  0  0  0  0  0  0  0  0  0  0  0
  154.2717  139.8045  161.4430 H   0  0  0  0  0  0  0  0  0  0  0  0
  154.4399  141.3833  163.3486 H   0  0  0  0  0  0  0  0  0  0  0  0
  151.9016  144.1705  161.2662 H   0  0  0  0  0  0  0  0  0  0  0  0
  151.7229  142.6225  159.3706 H   0  0  0  0  0  0  0  0  0  0  0  0
  147.6906  138.4119  153.4015 H   0  0  0  0  0  0  0  0  0  0  0  0
  148.6564  138.8950  152.0046 H   0  0  0  0  0  0  0  0  0  0  0  0
  147.2788  139.8651  152.5035 H   0  0  0  0  0  0  0  0  0  0  0  0
  1  2  1  0  0  0  0
  1 22  1  0  0  0  0
  1 23  1  0  0  0  0
  1 24  1  0  0  0  0
  2 20  2  0  0  0  0
  2  3  1  0  0  0  0
  3  4  2  0  0  0  0
  4  5  1  0  0  0  0
  4 25  1  0  0  0  0
  5  6  1  0  0  0  0
  5 18  1  0  0  0  0
  6  7  1  0  0  0  0
  6 26  1  0  0  0  0
  6 27  1  0  0  0  0
  7  8  1  0  0  0  0
  7  9  1  0  0  0  0
  7 28  1  0  0  0  0
  8 29  1  0  0  0  0
  9 10  1  0  0  0  0
  9 30  1  0  0  0  0
  9 31  1  0  0  0  0
 10 11  1  0  0  0  0
 11 17  1  0  0  0  0
 11 12  2  0  0  0  0
 12 13  1  0  0  0  0
 12 32  1  0  0  0  0
 13 14  2  0  0  0  0
 13 33  1  0  0  0  0
 14 15  1  0  0  0  0
 14 16  1  0  0  0  0
 16 17  2  0  0  0  0
 16 34  1  0  0  0  0
 17 35  1  0  0  0  0
 18 19  2  0  0  0  0
 18 20  1  0  0  0  0
 20 21  1  0  0  0  0
 21 36  1  0  0  0  0
 21 37  1  0  0  0  0
 21 38  1  0  0  0  0
M  END
> <s_m_source_file>
AV-unprocessed.smi

> <i_m_source_file_index>
2417

> <i_lp_mmshare_version>
43012

> <i_f3d_flags>
0

> <s_epik_input>
W0NIM11jMW5bY0hdbihjKD1PKWMxW0NIM10pW0NIMl1bQ0BIXShbT0hdKVtDSDJdT2MyW2NIXVtjSF1jKEYpW2NIXVtjSF0y

> <s_epik_cmdline>
J2VwaWtfcHl0aG9uJywgJy1waCcsICc3LjAnLCAnLXRuJywgJzgnLCAnLW1hJywgJzIwMCcsICctbWV0YWxfYmluZGluZycsICctaW1hZScsICc8aW5maWxlLm1hZT4nLCAnLW9tYWUnLCAnPG91dGZpbGUubWFlPic=

> <r_lp_tautomer_probability>
1

> <r_epik_Ionization_Penalty>
3.65384e-05

> <r_epik_Ionization_Penalty_Charging>
8.23007e-08

> <r_epik_Ionization_Penalty_Neutral>
3.64561e-05

> <r_epik_State_Penalty>
-0

> <r_epik_Charging_Adjusted_Penalty>
8.23007e-08

> <i_epik_Tot_Q>
0

> <i_epik_Tot_abs_Q>
0

> <r_epik_Metal_State_Penalty>
-0

> <b_epik_Metal_Only>
0

> <s_lp_Force_Field>
OPLS_2005

> <r_lp_Energy>
23.7128

> <b_lp_Chiralities_Consistent>
1

> <s_lp_Variant>
AV-unprocessed.smi:2417-1

> <Gold.Version>
5.8.1

> <Gold.Id.Protein>
6NUR|6NUR_protein|mol2

> <Gold.PLP.Fitness>
43.6291

> <Gold.PLP.PLP>
-45.7824

> <Gold.PLP.part.hbond>
0.0000

> <Gold.PLP.part.metal>
0.0000

> <Gold.PLP.part.buried>
-1.3641

> <Gold.PLP.part.nonpolar>
-44.5107

> <Gold.PLP.part.repulsive>
2.3442

> <Gold.PLP.ligand.clash>
0.0000

> <Gold.PLP.ligand.torsion>
1.1035

> <Gold.PLP.Chemscore.Hbond>
0.0000

> <Gold.PLP.Chemscore.CHOScore>
0.0000

> <Gold.PLP.Chemscore.Metal>
0.0000

> <Gold.PLP.Chemscore.Internal.Correction>
0.0536

> <Gold.Rescore>
     Score         DG    S(hbond)    S(metal)    S(lipo)     H(rot)  DE(clash)    DE(int)     intcor
      8.94     -11.66       0.00        0.00     108.32       2.54       1.67       1.06       ----

> <Gold.Chemscore.Fitness>
8.9367

> <Gold.Chemscore.DG>
-11.6630

> <Gold.Chemscore.ZeroCoef>
-5.4800

> <Gold.Chemscore.Hbond>
0.0000

> <Gold.Chemscore.Metal>
0.0000

> <Gold.Chemscore.Lipo>
108.3226

> <Gold.Chemscore.Internal_Hbond>
0.0000

> <Gold.Chemscore.DEClash>
1.6701

> <Gold.Chemscore.DEInternal>
1.0562

> <Gold.Chemscore.Rot>
2.5355

> <Gold.Chemscore.Internal.Correction>
   9.000000E+99

> <Gold.Chemscore.Hbond.Weighted>
-0.0000

> <Gold.Chemscore.Metal.Weighted>
-0.0000

> <Gold.Chemscore.Lipo.Weighted>
-12.6737

> <Gold.Chemscore.Internal_Hbond.Weighted>
0.0000

> <Gold.Chemscore.DEClash.Weighted>
1.6701

> <Gold.Chemscore.DEInternal.Weighted>
1.0562

> <Gold.Chemscore.Rot.Weighted>
6.4908

> <Gold.Chemscore.Internal.Correction.Weighted>
   9.000000E+99

> <Gold.Protein.RotatedTorsions>
[ 6907 6896 6895 6894 ] final    6.11 input  -60.11 | X-H torsion
[ 7974 7965 7964 7962 ] final  -66.02 input  175.53 | X-H torsion
[ 8008 7997 7996 7995 ] final   78.69 input   59.86 | X-H torsion
[ 10167 10162 10161 10158 ] final   43.29 input  -65.29 | X-H torsion
[ 10718 10713 10712 10709 ] final  118.18 input   66.30 | X-H torsion
[ 10763 10752 10751 10750 ] final   64.77 input  -60.55 | X-H torsion
[ 11005 11000 10999 10996 ] final  -47.72 input  -57.11 | X-H torsion

> <Gold.Protein.ActiveResidues>
 VAL166  LYS551  ARG553  GLY616  TRP617  ASP618  TYR619  PRO620  LYS621  CYS622 
 ASP623  PHE694  ASN695  SER759  ASP760  ASP761  ALA762  ILE779  LEU786  VAL792 
 PHE793  MET794  SER795  GLU796  ALA797  LYS798  CYS799  TRP800  GLU811  SER814 

> <Gold.Protein.RotatedAtoms>
  151.6684  135.0979  160.0192 H   0  0  0  0  0  0  0  0  0  0  0  0  # atno 6907 bound_to 6896
  152.3906  133.6669  159.6243 H   0  0  0  0  0  0  0  0  0  0  0  0  # atno 6908 bound_to 6896
  150.7822  133.8877  159.3345 H   0  0  0  0  0  0  0  0  0  0  0  0  # atno 6909 bound_to 6896
  145.7470  140.8926  143.0499 H   0  0  0  0  0  0  0  0  0  0  0  0  # atno 7974 bound_to 7965
  155.8592  140.3454  155.5745 H   0  0  0  0  0  0  0  0  0  0  0  0  # atno 8008 bound_to 7997
  155.7952  140.0877  157.2007 H   0  0  0  0  0  0  0  0  0  0  0  0  # atno 8009 bound_to 7997
  154.4011  140.1476  156.3197 H   0  0  0  0  0  0  0  0  0  0  0  0  # atno 8010 bound_to 7997
  140.3459  144.2412  150.6150 H   0  0  0  0  0  0  0  0  0  0  0  0  # atno 10167 bound_to 10162
  157.6047  131.1045  150.7720 H   0  0  0  0  0  0  0  0  0  0  0  0  # atno 10718 bound_to 10713
  153.0069  135.5381  154.6562 H   0  0  0  0  0  0  0  0  0  0  0  0  # atno 10763 bound_to 10752
  154.5782  135.2847  155.0761 H   0  0  0  0  0  0  0  0  0  0  0  0  # atno 10764 bound_to 10752
  154.1901  135.6501  153.5110 H   0  0  0  0  0  0  0  0  0  0  0  0  # atno 10765 bound_to 10752
  141.0658  133.6694  156.3338 H   0  0  0  0  0  0  0  0  0  0  0  0  # atno 11005 bound_to 11000
  144.6858  139.9539  143.7478 LP  0  0  0  0  0  0  0  0  0  0  0  0  # atno 17320 bound_to 7965
  146.0393  139.3406  143.0707 LP  0  0  0  0  0  0  0  0  0  0  0  0  # atno 17321 bound_to 7965
  140.5265  143.2253  151.8306 LP  0  0  0  0  0  0  0  0  0  0  0  0  # atno 17342 bound_to 10162
  139.4833  144.4773  151.9351 LP  0  0  0  0  0  0  0  0  0  0  0  0  # atno 17343 bound_to 10162
  156.8111  130.4953  149.5356 LP  0  0  0  0  0  0  0  0  0  0  0  0  # atno 17370 bound_to 10713
  156.1130  130.6054  151.0077 LP  0  0  0  0  0  0  0  0  0  0  0  0  # atno 17371 bound_to 10713
  140.5777  134.5777  157.5472 LP  0  0  0  0  0  0  0  0  0  0  0  0  # atno 17394 bound_to 11000
  139.9475  134.7676  156.0528 LP  0  0  0  0  0  0  0  0  0  0  0  0  # atno 17395 bound_to 11000

$$$$
