AV-unprocessed.smi:3148|AV-procd|sdf|11993|dock8
  -GOLD-   2272017403D 1   1.00000     0.00000
 Structure written by MMmdl.
 34 36  0  0  0  0  0  0  0  0  1 V2000
  151.3457  144.6881  158.3892 C   0  0  0  0  0  0  0  0  0  0  0  0
  152.2189  144.2897  159.4402 O   0  0  0  0  0  0  0  0  0  0  0  0
  152.5308  142.9508  159.5532 C   0  0  0  0  0  0  0  0  0  0  0  0
  153.3839  142.5220  160.5903 C   0  0  0  0  0  0  0  0  0  0  0  0
  153.6610  141.1400  160.6439 C   0  0  0  0  0  0  0  0  0  0  0  0
  154.5686  140.5552  161.7050 C   0  0  0  0  0  0  0  0  0  0  0  0
  153.1374  140.2728  159.7496 N   0  0  0  0  0  0  0  0  0  0  0  0
  152.3426  140.7822  158.8060 C   0  0  0  0  0  0  0  0  0  0  0  0
  151.8306  139.8691  157.9029 N   0  0  0  0  0  0  0  0  0  0  0  0
  151.2740  140.2249  156.6026 C   0  0  2  0  0  0  0  0  0  0  0  0
  149.9102  139.5847  156.3354 C   0  0  0  0  0  0  0  0  0  0  0  0
  150.1472  138.8928  154.9853 C   0  0  2  0  0  0  0  0  0  0  0  0
  150.9962  137.6246  155.1439 C   0  0  0  0  0  0  0  0  0  0  0  0
  152.3780  138.2100  155.4284 C   0  0  0  0  0  0  0  0  0  0  0  0
  152.0956  139.7219  155.3989 C   0  0  1  0  0  0  0  0  0  0  0  0
  151.0956  139.7661  154.3950 O   0  0  0  0  0  0  0  0  0  0  0  0
  152.0121  142.0703  158.6617 N   0  0  0  0  0  0  0  0  0  0  0  0
  151.2033  145.7679  158.4287 H   0  0  0  0  0  0  0  0  0  0  0  0
  150.3645  144.2212  158.4865 H   0  0  0  0  0  0  0  0  0  0  0  0
  151.7621  144.4442  157.4107 H   0  0  0  0  0  0  0  0  0  0  0  0
  153.8019  143.2184  161.3022 H   0  0  0  0  0  0  0  0  0  0  0  0
  154.8193  141.2994  162.4615 H   0  0  0  0  0  0  0  0  0  0  0  0
  155.4956  140.2004  161.2542 H   0  0  0  0  0  0  0  0  0  0  0  0
  154.0836  139.7146  162.2022 H   0  0  0  0  0  0  0  0  0  0  0  0
  152.0218  138.8943  158.0828 H   0  0  0  0  0  0  0  0  0  0  0  0
  151.1702  141.3094  156.5439 H   0  0  0  0  0  0  0  0  0  0  0  0
  149.5953  138.8788  157.1053 H   0  0  0  0  0  0  0  0  0  0  0  0
  149.1430  140.3548  156.2494 H   0  0  0  0  0  0  0  0  0  0  0  0
  149.2410  138.7472  154.3971 H   0  0  0  0  0  0  0  0  0  0  0  0
  150.6352  136.9796  155.9459 H   0  0  0  0  0  0  0  0  0  0  0  0
  151.0090  137.0464  154.2193 H   0  0  0  0  0  0  0  0  0  0  0  0
  152.7983  137.8703  156.3753 H   0  0  0  0  0  0  0  0  0  0  0  0
  153.0748  137.9361  154.6358 H   0  0  0  0  0  0  0  0  0  0  0  0
  152.9735  140.3293  155.1773 H   0  0  0  0  0  0  0  0  0  0  0  0
  1  2  1  0  0  0  0
  1 18  1  0  0  0  0
  1 19  1  0  0  0  0
  1 20  1  0  0  0  0
  2  3  1  0  0  0  0
  3 17  1  0  0  0  0
  3  4  2  0  0  0  0
  4  5  1  0  0  0  0
  4 21  1  0  0  0  0
  5  6  1  0  0  0  0
  5  7  2  0  0  0  0
  6 22  1  0  0  0  0
  6 23  1  0  0  0  0
  6 24  1  0  0  0  0
  7  8  1  0  0  0  0
  8  9  1  0  0  0  0
  8 17  2  0  0  0  0
  9 10  1  0  0  0  0
  9 25  1  0  0  0  0
 10 15  1  0  0  0  0
 10 11  1  0  0  0  0
 10 26  1  0  0  0  0
 11 12  1  0  0  0  0
 11 27  1  0  0  0  0
 11 28  1  0  0  0  0
 12 16  1  0  0  0  0
 12 13  1  0  0  0  0
 12 29  1  0  0  0  0
 13 14  1  0  0  0  0
 13 30  1  0  0  0  0
 13 31  1  0  0  0  0
 14 15  1  0  0  0  0
 14 32  1  0  0  0  0
 14 33  1  0  0  0  0
 15 16  1  0  0  0  0
 15 34  1  0  0  0  0
M  END
> <s_m_source_file>
AV-unprocessed.smi

> <i_m_source_file_index>
3148

> <i_lp_mmshare_version>
43012

> <i_f3d_flags>
0

> <s_epik_input>
W0NIM11PYzFbY0hdYyhbQ0gzXSluYyhuMSlbTkhdW0NASF0oW0NIMl1bQ0BASF0yMylbQ0BASF0oTzMpW0NIMl1bQ0gyXTI=

> <s_epik_cmdline>
J2VwaWtfcHl0aG9uJywgJy1waCcsICc3LjAnLCAnLXRuJywgJzgnLCAnLW1hJywgJzIwMCcsICctbWV0YWxfYmluZGluZycsICctaW1hZScsICc8aW5maWxlLm1hZT4nLCAnLW9tYWUnLCAnPG91dGZpbGUubWFlPic=

> <r_lp_tautomer_probability>
1

> <r_epik_Ionization_Penalty>
0.101645

> <r_epik_Ionization_Penalty_Charging>
0

> <r_epik_Ionization_Penalty_Neutral>
0.101645

> <r_epik_State_Penalty>
0.0916212

> <r_epik_Charging_Adjusted_Penalty>
0.0916212

> <i_epik_Tot_Q>
0

> <i_epik_Tot_abs_Q>
0

> <r_epik_Metal_State_Penalty>
0.0781

> <b_epik_Metal_Only>
0

> <s_lp_Force_Field>
OPLS_2005

> <r_lp_Energy>
31.5885

> <b_lp_Chiralities_Consistent>
1

> <s_lp_Variant>
AV-unprocessed.smi:3148-3

> <Gold.Version>
5.8.1

> <Gold.Id.Protein>
6NUR|6NUR_protein|mol2

> <Gold.PLP.Fitness>
37.1290

> <Gold.PLP.PLP>
-34.4245

> <Gold.PLP.part.hbond>
-1.0000

> <Gold.PLP.part.metal>
0.0000

> <Gold.PLP.part.buried>
-4.4571

> <Gold.PLP.part.nonpolar>
-29.1305

> <Gold.PLP.part.repulsive>
0.1999

> <Gold.PLP.ligand.clash>
0.0000

> <Gold.PLP.ligand.torsion>
0.1527

> <Gold.PLP.Chemscore.Hbond>
1.0000

> <Gold.PLP.Chemscore.CHOScore>
0.0000

> <Gold.PLP.Chemscore.Metal>
0.0000

> <Gold.Chemscore.Hbonds>
donor molecule, donor type, donor heavy atom, donor atom, acceptor molecule, acceptor atom, score
      P1  H  7989  7998       L1    16  0.96

> <Gold.PLP.Chemscore.Internal.Correction>
0.0100

> <Gold.Rescore>
     Score         DG    S(hbond)    S(metal)    S(lipo)     H(rot)  DE(clash)    DE(int)     intcor
     14.64     -14.88       0.94        0.00      80.26       1.22       0.12       0.13       ----

> <Gold.Chemscore.Fitness>
14.6358

> <Gold.Chemscore.DG>
-14.8843

> <Gold.Chemscore.ZeroCoef>
-5.4800

> <Gold.Chemscore.Hbond>
0.9415

> <Gold.Chemscore.Metal>
0.0000

> <Gold.Chemscore.Lipo>
80.2645

> <Gold.Chemscore.Internal_Hbond>
0.0000

> <Gold.Chemscore.DEClash>
0.1214

> <Gold.Chemscore.DEInternal>
0.1270

> <Gold.Chemscore.Rot>
1.2232

> <Gold.Chemscore.Internal.Correction>
   9.000000E+99

> <Gold.Chemscore.Hbonds>
donor molecule, donor type, donor heavy atom, donor atom, acceptor molecule, acceptor atom, score
      P1  H  7989  7998       L1    16  0.27

> <Gold.Chemscore.Hbond.Weighted>
-3.1447

> <Gold.Chemscore.Metal.Weighted>
-0.0000

> <Gold.Chemscore.Lipo.Weighted>
-9.3909

> <Gold.Chemscore.Internal_Hbond.Weighted>
0.0000

> <Gold.Chemscore.DEClash.Weighted>
0.1214

> <Gold.Chemscore.DEInternal.Weighted>
0.1270

> <Gold.Chemscore.Rot.Weighted>
3.1314

> <Gold.Chemscore.Internal.Correction.Weighted>
   9.000000E+99

> <Gold.Protein.RotatedTorsions>
[ 6907 6896 6895 6894 ] final  147.67 input  -60.11 | X-H torsion
[ 7974 7965 7964 7962 ] final  118.11 input  175.53 | X-H torsion
[ 8008 7997 7996 7995 ] final -147.50 input   59.86 | X-H torsion
[ 10167 10162 10161 10158 ] final  -87.80 input  -65.29 | X-H torsion
[ 10718 10713 10712 10709 ] final   39.99 input   66.30 | X-H torsion
[ 10763 10752 10751 10750 ] final  -35.22 input  -60.55 | X-H torsion
[ 11005 11000 10999 10996 ] final   56.10 input  -57.11 | X-H torsion

> <Gold.Protein.ActiveResidues>
 VAL166  LYS551  ARG553  GLY616  TRP617  ASP618  TYR619  PRO620  LYS621  CYS622 
 ASP623  PHE694  ASN695  SER759  ASP760  ASP761  ALA762  ILE779  LEU786  VAL792 
 PHE793  MET794  SER795  GLU796  ALA797  LYS798  CYS799  TRP800  GLU811  SER814 

> <Gold.Protein.RotatedAtoms>
  152.1517  133.4526  159.4816 H   0  0  0  0  0  0  0  0  0  0  0  0  # atno 6907 bound_to 6896
  150.6896  134.2180  159.4395 H   0  0  0  0  0  0  0  0  0  0  0  0  # atno 6908 bound_to 6896
  152.0078  134.9893  160.0618 H   0  0  0  0  0  0  0  0  0  0  0  0  # atno 6909 bound_to 6896
  145.1592  139.3165  143.4526 H   0  0  0  0  0  0  0  0  0  0  0  0  # atno 7974 bound_to 7965
  155.5765  140.0639  157.2794 H   0  0  0  0  0  0  0  0  0  0  0  0  # atno 8008 bound_to 7997
  154.4345  140.1859  156.0979 H   0  0  0  0  0  0  0  0  0  0  0  0  # atno 8009 bound_to 7997
  156.0337  140.3303  155.7171 H   0  0  0  0  0  0  0  0  0  0  0  0  # atno 8010 bound_to 7997
  140.3809  143.2749  151.9385 H   0  0  0  0  0  0  0  0  0  0  0  0  # atno 10167 bound_to 10162
  157.3770  130.7732  149.7163 H   0  0  0  0  0  0  0  0  0  0  0  0  # atno 10718 bound_to 10713
  153.8596  135.6841  153.4784 H   0  0  0  0  0  0  0  0  0  0  0  0  # atno 10763 bound_to 10752
  153.1349  135.4682  154.9405 H   0  0  0  0  0  0  0  0  0  0  0  0  # atno 10764 bound_to 10752
  154.7765  135.3255  154.8030 H   0  0  0  0  0  0  0  0  0  0  0  0  # atno 10765 bound_to 10752
  140.0555  134.5676  155.9213 H   0  0  0  0  0  0  0  0  0  0  0  0  # atno 11005 bound_to 11000
  146.3484  140.1696  142.8590 LP  0  0  0  0  0  0  0  0  0  0  0  0  # atno 17320 bound_to 7965
  145.0349  140.8900  143.5087 LP  0  0  0  0  0  0  0  0  0  0  0  0  # atno 17321 bound_to 7965
  139.4795  144.5819  151.7918 LP  0  0  0  0  0  0  0  0  0  0  0  0  # atno 17342 bound_to 10162
  140.4938  144.1270  150.5956 LP  0  0  0  0  0  0  0  0  0  0  0  0  # atno 17343 bound_to 10162
  155.9767  130.4072  150.3759 LP  0  0  0  0  0  0  0  0  0  0  0  0  # atno 17370 bound_to 10713
  157.1858  131.0403  151.2725 LP  0  0  0  0  0  0  0  0  0  0  0  0  # atno 17371 bound_to 10713
  141.1950  133.6585  156.5622 LP  0  0  0  0  0  0  0  0  0  0  0  0  # atno 17394 bound_to 11000
  140.3851  134.7490  157.4686 LP  0  0  0  0  0  0  0  0  0  0  0  0  # atno 17395 bound_to 11000

$$$$
