AV-unprocessed.smi:1420|AV-procd|sdf|5787|dock10
  -GOLD-   22720 5433D 1   1.00000     0.00000
 Structure written by MMmdl.
 38 39  0  0  0  0  0  0  0  0  1 V2000
  148.6222  141.1339  154.9025 C   0  0  0  0  0  0  0  0  0  0  0  0
  150.0029  141.1101  155.6067 C   0  0  1  0  0  0  0  0  0  0  0  0
  149.7894  140.8032  157.1180 C   0  0  0  0  0  0  0  0  0  0  0  0
  150.6939  141.5426  157.9939 N   0  0  0  0  0  0  0  0  0  0  0  0
  151.7153  141.0057  158.6795 C   0  0  0  0  0  0  0  0  0  0  0  0
  152.0016  139.8092  158.6445 O   0  0  0  0  0  0  0  0  0  0  0  0
  152.5468  141.9662  159.5307 C   0  0  0  0  0  0  0  0  0  0  0  0
  151.9300  143.2791  159.5981 N   0  0  0  0  0  0  0  0  0  0  0  0
  152.2921  144.4311  158.9311 C   0  0  0  0  0  0  0  0  0  0  0  0
  151.4226  145.4124  159.3129 C   0  0  0  0  0  0  0  0  0  0  0  0
  150.5529  144.7562  160.2283 C   0  0  0  0  0  0  0  0  0  0  0  0
  150.8588  143.4798  160.3974 N   0  0  0  0  0  0  0  0  0  0  0  0
  150.9647  140.1927  154.9515 N   0  0  0  0  0  0  0  0  0  0  0  0
  152.2022  140.0317  155.7238 C   0  0  0  0  0  0  0  0  0  0  0  0
  153.1961  139.0585  155.0665 C   0  0  0  0  0  0  0  0  0  0  0  0
  152.5740  137.7952  154.8781 O   0  0  0  0  0  0  0  0  0  0  0  0
  151.4108  137.8903  154.0682 C   0  0  0  0  0  0  0  0  0  0  0  0
  150.4038  138.8571  154.7156 C   0  0  0  0  0  0  0  0  0  0  0  0
  147.9020  141.7675  155.4185 H   0  0  0  0  0  0  0  0  0  0  0  0
  148.1933  140.1330  154.8420 H   0  0  0  0  0  0  0  0  0  0  0  0
  148.6805  141.5378  153.8927 H   0  0  0  0  0  0  0  0  0  0  0  0
  150.4097  142.1201  155.5384 H   0  0  0  0  0  0  0  0  0  0  0  0
  148.7659  141.0468  157.4046 H   0  0  0  0  0  0  0  0  0  0  0  0
  149.9287  139.7478  157.3471 H   0  0  0  0  0  0  0  0  0  0  0  0
  150.5308  142.5352  158.0864 H   0  0  0  0  0  0  0  0  0  0  0  0
  152.6472  141.5757  160.5443 H   0  0  0  0  0  0  0  0  0  0  0  0
  153.5539  142.0526  159.1192 H   0  0  0  0  0  0  0  0  0  0  0  0
  153.1297  144.4555  158.2495 H   0  0  0  0  0  0  0  0  0  0  0  0
  151.4097  146.4422  158.9878 H   0  0  0  0  0  0  0  0  0  0  0  0
  149.7141  145.1668  160.7710 H   0  0  0  0  0  0  0  0  0  0  0  0
  152.7152  140.9855  155.8304 H   0  0  0  0  0  0  0  0  0  0  0  0
  151.9673  139.6828  156.7305 H   0  0  0  0  0  0  0  0  0  0  0  0
  153.5444  139.4489  154.1090 H   0  0  0  0  0  0  0  0  0  0  0  0
  154.0749  138.9310  155.6988 H   0  0  0  0  0  0  0  0  0  0  0  0
  151.6812  138.2278  153.0663 H   0  0  0  0  0  0  0  0  0  0  0  0
  150.9694  136.8992  153.9632 H   0  0  0  0  0  0  0  0  0  0  0  0
  150.0484  138.4333  155.6562 H   0  0  0  0  0  0  0  0  0  0  0  0
  149.5470  138.9094  154.0474 H   0  0  0  0  0  0  0  0  0  0  0  0
  1  2  1  0  0  0  0
  1 19  1  0  0  0  0
  1 20  1  0  0  0  0
  1 21  1  0  0  0  0
  2  3  1  0  0  0  0
  2 13  1  0  0  0  0
  2 22  1  0  0  0  0
  3  4  1  0  0  0  0
  3 23  1  0  0  0  0
  3 24  1  0  0  0  0
  4  5  1  0  0  0  0
  4 25  1  0  0  0  0
  5  6  2  0  0  0  0
  5  7  1  0  0  0  0
  7  8  1  0  0  0  0
  7 26  1  0  0  0  0
  7 27  1  0  0  0  0
  8 12  1  0  0  0  0
  8  9  1  0  0  0  0
  9 10  2  0  0  0  0
  9 28  1  0  0  0  0
 10 11  1  0  0  0  0
 10 29  1  0  0  0  0
 11 12  2  0  0  0  0
 11 30  1  0  0  0  0
 13 18  1  0  0  0  0
 13 14  1  0  0  0  0
 14 15  1  0  0  0  0
 14 31  1  0  0  0  0
 14 32  1  0  0  0  0
 15 16  1  0  0  0  0
 15 33  1  0  0  0  0
 15 34  1  0  0  0  0
 16 17  1  0  0  0  0
 17 18  1  0  0  0  0
 17 35  1  0  0  0  0
 17 36  1  0  0  0  0
 18 37  1  0  0  0  0
 18 38  1  0  0  0  0
M  END
> <s_m_source_file>
AV-unprocessed.smi

> <i_m_source_file_index>
1420

> <i_lp_mmshare_version>
43012

> <i_f3d_flags>
0

> <s_epik_input>
W0NIMl0xW0NIMl1PW0NIMl1bQ0gyXU4xW0NASF0oW0NIM10pW0NIMl1bTkhdQyg9TylbQ0gyXW4yW2NIXVtjSF1bY0hdbjI=

> <s_epik_cmdline>
J2VwaWtfcHl0aG9uJywgJy1waCcsICc3LjAnLCAnLXRuJywgJzgnLCAnLW1hJywgJzIwMCcsICctbWV0YWxfYmluZGluZycsICctaW1hZScsICc8aW5maWxlLm1hZT4nLCAnLW9tYWUnLCAnPG91dGZpbGUubWFlPic=

> <r_lp_tautomer_probability>
1

> <r_epik_Ionization_Penalty>
0.196927

> <r_epik_Ionization_Penalty_Charging>
0

> <r_epik_Ionization_Penalty_Neutral>
0.196927

> <r_epik_State_Penalty>
0.186684

> <r_epik_Charging_Adjusted_Penalty>
0.186684

> <i_epik_Tot_Q>
0

> <i_epik_Tot_abs_Q>
0

> <r_epik_Metal_State_Penalty>
0.186682

> <b_epik_Metal_Only>
0

> <s_lp_Force_Field>
OPLS_2005

> <r_lp_Energy>
28.9216

> <b_lp_Chiralities_Consistent>
1

> <s_lp_Variant>
AV-unprocessed.smi:1420-2

> <Gold.Version>
5.8.1

> <Gold.Id.Protein>
6NUR|6NUR_protein|mol2

> <Gold.PLP.Fitness>
47.1644

> <Gold.PLP.PLP>
-43.5924

> <Gold.PLP.part.hbond>
-2.4916

> <Gold.PLP.part.metal>
0.0000

> <Gold.PLP.part.buried>
-5.0146

> <Gold.PLP.part.nonpolar>
-37.3468

> <Gold.PLP.part.repulsive>
0.2693

> <Gold.PLP.ligand.clash>
0.0000

> <Gold.PLP.ligand.torsion>
0.9308

> <Gold.PLP.Chemscore.Hbond>
1.7930

> <Gold.PLP.Chemscore.CHOScore>
0.0000

> <Gold.PLP.Chemscore.Metal>
0.0000

> <Gold.Chemscore.Hbonds>
donor molecule, donor type, donor heavy atom, donor atom, acceptor molecule, acceptor atom, score
      P1  H  7989  7998       L1    13  0.95
      P1  H 10752 10765       L1    16  0.23

> <Gold.PLP.Chemscore.Internal.Correction>
0.0547

> <Gold.Rescore>
     Score         DG    S(hbond)    S(metal)    S(lipo)     H(rot)  DE(clash)    DE(int)     intcor
     13.69     -14.84       0.82        0.00      97.59       1.87       0.10       1.05       ----

> <Gold.Chemscore.Fitness>
13.6919

> <Gold.Chemscore.DG>
-14.8411

> <Gold.Chemscore.ZeroCoef>
-5.4800

> <Gold.Chemscore.Hbond>
0.8151

> <Gold.Chemscore.Metal>
0.0000

> <Gold.Chemscore.Lipo>
97.5894

> <Gold.Chemscore.Internal_Hbond>
0.0000

> <Gold.Chemscore.DEClash>
0.0952

> <Gold.Chemscore.DEInternal>
1.0540

> <Gold.Chemscore.Rot>
1.8669

> <Gold.Chemscore.Internal.Correction>
   9.000000E+99

> <Gold.Chemscore.Hbonds>
donor molecule, donor type, donor heavy atom, donor atom, acceptor molecule, acceptor atom, score
      P1  H  7989  7998       L1    13  0.14
      P1  H 10752 10765       L1    16  0.04

> <Gold.Chemscore.Hbond.Weighted>
-2.7224

> <Gold.Chemscore.Metal.Weighted>
-0.0000

> <Gold.Chemscore.Lipo.Weighted>
-11.4180

> <Gold.Chemscore.Internal_Hbond.Weighted>
0.0000

> <Gold.Chemscore.DEClash.Weighted>
0.0952

> <Gold.Chemscore.DEInternal.Weighted>
1.0540

> <Gold.Chemscore.Rot.Weighted>
4.7792

> <Gold.Chemscore.Internal.Correction.Weighted>
   9.000000E+99

> <Gold.Protein.RotatedTorsions>
[ 6907 6896 6895 6894 ] final   69.63 input  -60.11 | X-H torsion
[ 7974 7965 7964 7962 ] final  150.01 input  175.53 | X-H torsion
[ 8008 7997 7996 7995 ] final -150.34 input   59.86 | X-H torsion
[ 10167 10162 10161 10158 ] final   80.37 input  -65.29 | X-H torsion
[ 10718 10713 10712 10709 ] final   11.12 input   66.30 | X-H torsion
[ 10763 10752 10751 10750 ] final  177.29 input  -60.55 | X-H torsion
[ 11005 11000 10999 10996 ] final -146.12 input  -57.11 | X-H torsion

> <Gold.Protein.ActiveResidues>
 VAL166  LYS551  ARG553  GLY616  TRP617  ASP618  TYR619  PRO620  LYS621  CYS622 
 ASP623  PHE694  ASN695  SER759  ASP760  ASP761  ALA762  ILE779  LEU786  VAL792 
 PHE793  MET794  SER795  GLU796  ALA797  LYS798  CYS799  TRP800  GLU811  SER814 

> <Gold.Protein.RotatedAtoms>
  152.4698  134.4988  159.9717 H   0  0  0  0  0  0  0  0  0  0  0  0  # atno 6907 bound_to 6896
  151.5017  133.3497  159.2878 H   0  0  0  0  0  0  0  0  0  0  0  0  # atno 6908 bound_to 6896
  150.8702  134.8102  159.7210 H   0  0  0  0  0  0  0  0  0  0  0  0  # atno 6909 bound_to 6896
  144.8396  139.6353  143.6022 H   0  0  0  0  0  0  0  0  0  0  0  0  # atno 7974 bound_to 7965
  155.6220  140.0682  157.2675 H   0  0  0  0  0  0  0  0  0  0  0  0  # atno 8008 bound_to 7997
  154.4227  140.1783  156.1430 H   0  0  0  0  0  0  0  0  0  0  0  0  # atno 8009 bound_to 7997
  156.0002  140.3337  155.6841 H   0  0  0  0  0  0  0  0  0  0  0  0  # atno 8010 bound_to 7997
  139.9505  144.6029  150.8166 H   0  0  0  0  0  0  0  0  0  0  0  0  # atno 10167 bound_to 10162
  156.9909  130.6042  149.5686 H   0  0  0  0  0  0  0  0  0  0  0  0  # atno 10718 bound_to 10713
  154.4925  135.2779  155.1485 H   0  0  0  0  0  0  0  0  0  0  0  0  # atno 10763 bound_to 10752
  154.3151  135.6221  153.5486 H   0  0  0  0  0  0  0  0  0  0  0  0  # atno 10764 bound_to 10752
  152.9890  135.5729  154.5349 H   0  0  0  0  0  0  0  0  0  0  0  0  # atno 10765 bound_to 10752
  140.7852  134.3032  157.5032 H   0  0  0  0  0  0  0  0  0  0  0  0  # atno 11005 bound_to 11000
  146.2690  139.6589  142.9309 LP  0  0  0  0  0  0  0  0  0  0  0  0  # atno 17320 bound_to 7965
  145.4722  141.0436  143.2692 LP  0  0  0  0  0  0  0  0  0  0  0  0  # atno 17321 bound_to 7965
  140.7584  143.3107  151.2852 LP  0  0  0  0  0  0  0  0  0  0  0  0  # atno 17342 bound_to 10162
  139.6632  144.0151  152.2706 LP  0  0  0  0  0  0  0  0  0  0  0  0  # atno 17343 bound_to 10162
  156.0207  130.5302  150.8268 LP  0  0  0  0  0  0  0  0  0  0  0  0  # atno 17370 bound_to 10713
  157.5459  131.0942  150.9763 LP  0  0  0  0  0  0  0  0  0  0  0  0  # atno 17371 bound_to 10713
  139.8737  134.9342  156.3601 LP  0  0  0  0  0  0  0  0  0  0  0  0  # atno 17394 bound_to 11000
  140.9443  133.7493  156.0188 LP  0  0  0  0  0  0  0  0  0  0  0  0  # atno 17395 bound_to 11000

$$$$
