AV-unprocessed.smi:1468|AV-procd|sdf|5957|dock3
  -GOLD-   22720 6 43D 1   1.00000     0.00000
 Structure written by MMmdl.
 35 36  0  0  0  0  0  0  0  0  1 V2000
  151.4239  140.5134  156.1681 O   0  0  0  0  0  0  0  0  0  0  0  0
  150.6236  141.4199  155.9393 C   0  0  0  0  0  0  0  0  0  0  0  0
  149.4618  141.1847  154.9719 C   0  0  0  0  0  0  0  0  0  0  0  0
  148.1840  141.5153  155.5787 N   0  0  0  0  0  0  0  0  0  0  0  0
  147.6997  141.1439  156.8147 C   0  0  0  0  0  0  0  0  0  0  0  0
  146.4587  141.6974  156.9470 C   0  0  0  0  0  0  0  0  0  0  0  0
  146.2625  142.4056  155.7260 C   0  0  0  0  0  0  0  0  0  0  0  0
  145.0704  143.2216  155.2999 C   0  0  0  0  0  0  0  0  0  0  0  0
  143.9677  142.4727  155.3150 F   0  0  0  0  0  0  0  0  0  0  0  0
  144.9024  144.2492  156.1321 F   0  0  0  0  0  0  0  0  0  0  0  0
  145.2551  143.6877  154.0649 F   0  0  0  0  0  0  0  0  0  0  0  0
  147.3023  142.2898  154.9107 N   0  0  0  0  0  0  0  0  0  0  0  0
  150.6966  142.6339  156.5082 N   0  0  0  0  0  0  0  0  0  0  0  0
  151.7113  143.0571  157.4681 C   0  0  0  0  0  0  0  0  0  0  0  0
  151.7663  142.0816  158.6618 C   0  0  0  0  0  0  0  0  0  0  0  0
  152.7783  142.5471  159.7210 C   0  0  0  0  0  0  0  0  0  0  0  0
  152.4720  143.9767  160.1938 C   0  0  0  0  0  0  0  0  0  0  0  0
  152.4183  144.9536  159.0084 C   0  0  0  0  0  0  0  0  0  0  0  0
  151.4071  144.4892  157.9470 C   0  0  0  0  0  0  0  0  0  0  0  0
  149.5898  141.7975  154.0786 H   0  0  0  0  0  0  0  0  0  0  0  0
  149.4583  140.1425  154.6483 H   0  0  0  0  0  0  0  0  0  0  0  0
  148.2724  140.5233  157.4885 H   0  0  0  0  0  0  0  0  0  0  0  0
  145.7910  141.6117  157.7914 H   0  0  0  0  0  0  0  0  0  0  0  0
  149.9947  143.3154  156.2569 H   0  0  0  0  0  0  0  0  0  0  0  0
  152.6861  143.0671  156.9760 H   0  0  0  0  0  0  0  0  0  0  0  0
  150.7786  142.0005  159.1181 H   0  0  0  0  0  0  0  0  0  0  0  0
  152.0310  141.0805  158.3194 H   0  0  0  0  0  0  0  0  0  0  0  0
  152.7677  141.8636  160.5705 H   0  0  0  0  0  0  0  0  0  0  0  0
  153.7853  142.5073  159.3042 H   0  0  0  0  0  0  0  0  0  0  0  0
  151.5181  143.9904  160.7228 H   0  0  0  0  0  0  0  0  0  0  0  0
  153.2276  144.3014  160.9098 H   0  0  0  0  0  0  0  0  0  0  0  0
  152.1551  145.9512  159.3610 H   0  0  0  0  0  0  0  0  0  0  0  0
  153.4084  145.0359  158.5581 H   0  0  0  0  0  0  0  0  0  0  0  0
  151.4216  145.1771  157.1006 H   0  0  0  0  0  0  0  0  0  0  0  0
  150.4001  144.5345  158.3644 H   0  0  0  0  0  0  0  0  0  0  0  0
  1  2  2  0  0  0  0
  2  3  1  0  0  0  0
  2 13  1  0  0  0  0
  3  4  1  0  0  0  0
  3 20  1  0  0  0  0
  3 21  1  0  0  0  0
  4 12  1  0  0  0  0
  4  5  1  0  0  0  0
  5  6  2  0  0  0  0
  5 22  1  0  0  0  0
  6  7  1  0  0  0  0
  6 23  1  0  0  0  0
  7  8  1  0  0  0  0
  7 12  2  0  0  0  0
  8  9  1  0  0  0  0
  8 10  1  0  0  0  0
  8 11  1  0  0  0  0
 13 14  1  0  0  0  0
 13 24  1  0  0  0  0
 14 19  1  0  0  0  0
 14 15  1  0  0  0  0
 14 25  1  0  0  0  0
 15 16  1  0  0  0  0
 15 26  1  0  0  0  0
 15 27  1  0  0  0  0
 16 17  1  0  0  0  0
 16 28  1  0  0  0  0
 16 29  1  0  0  0  0
 17 18  1  0  0  0  0
 17 30  1  0  0  0  0
 17 31  1  0  0  0  0
 18 19  1  0  0  0  0
 18 32  1  0  0  0  0
 18 33  1  0  0  0  0
 19 34  1  0  0  0  0
 19 35  1  0  0  0  0
M  END
> <s_m_source_file>
AV-unprocessed.smi

> <i_m_source_file_index>
1468

> <i_lp_mmshare_version>
43012

> <i_f3d_flags>
0

> <s_epik_input>
W0NIMl0xW0NIMl1bQ0gyXVtDSDJdW0NIMl1bQ0hdMVtOSF1DKD1PKVtDSDJdbjJbY0hdW2NIXWMobjIpQyhGKShGKUY=

> <s_epik_cmdline>
J2VwaWtfcHl0aG9uJywgJy1waCcsICc3LjAnLCAnLXRuJywgJzgnLCAnLW1hJywgJzIwMCcsICctbWV0YWxfYmluZGluZycsICctaW1hZScsICc8aW5maWxlLm1hZT4nLCAnLW9tYWUnLCAnPG91dGZpbGUubWFlPic=

> <r_lp_tautomer_probability>
1

> <r_epik_Ionization_Penalty>
8.28732e-08

> <r_epik_Ionization_Penalty_Charging>
0

> <r_epik_Ionization_Penalty_Neutral>
8.28732e-08

> <r_epik_State_Penalty>
-0

> <r_epik_Charging_Adjusted_Penalty>
0

> <i_epik_Tot_Q>
0

> <i_epik_Tot_abs_Q>
0

> <r_epik_Metal_State_Penalty>
-0

> <b_epik_Metal_Only>
0

> <s_lp_Force_Field>
OPLS_2005

> <r_lp_Energy>
10.9617

> <b_lp_Chiralities_Consistent>
1

> <s_lp_Variant>
AV-unprocessed.smi:1468-1

> <Gold.Version>
5.8.1

> <Gold.Id.Protein>
6NUR|6NUR_protein|mol2

> <Gold.PLP.Fitness>
42.0565

> <Gold.PLP.PLP>
-39.4550

> <Gold.PLP.part.hbond>
-1.0000

> <Gold.PLP.part.metal>
0.0000

> <Gold.PLP.part.buried>
-7.2403

> <Gold.PLP.part.nonpolar>
-32.6164

> <Gold.PLP.part.repulsive>
1.1029

> <Gold.PLP.ligand.clash>
0.0000

> <Gold.PLP.ligand.torsion>
0.2062

> <Gold.PLP.Chemscore.Hbond>
1.0000

> <Gold.PLP.Chemscore.CHOScore>
0.0000

> <Gold.PLP.Chemscore.Metal>
0.0000

> <Gold.Chemscore.Hbonds>
donor molecule, donor type, donor heavy atom, donor atom, acceptor molecule, acceptor atom, score
      L1  H    13    24       P1  8028  1.00

> <Gold.PLP.Chemscore.Internal.Correction>
0.0139

> <Gold.Rescore>
     Score         DG    S(hbond)    S(metal)    S(lipo)     H(rot)  DE(clash)    DE(int)     intcor
     14.79     -15.21       0.99        0.00      89.05       1.56       0.12       0.30       ----

> <Gold.Chemscore.Fitness>
14.7926

> <Gold.Chemscore.DG>
-15.2093

> <Gold.Chemscore.ZeroCoef>
-5.4800

> <Gold.Chemscore.Hbond>
0.9863

> <Gold.Chemscore.Metal>
0.0000

> <Gold.Chemscore.Lipo>
89.0512

> <Gold.Chemscore.Internal_Hbond>
0.0000

> <Gold.Chemscore.DEClash>
0.1205

> <Gold.Chemscore.DEInternal>
0.2962

> <Gold.Chemscore.Rot>
1.5563

> <Gold.Chemscore.Internal.Correction>
   9.000000E+99

> <Gold.Chemscore.Hbonds>
donor molecule, donor type, donor heavy atom, donor atom, acceptor molecule, acceptor atom, score
      L1  H    13    24       P1  8028  1.00

> <Gold.Chemscore.Hbond.Weighted>
-3.2944

> <Gold.Chemscore.Metal.Weighted>
-0.0000

> <Gold.Chemscore.Lipo.Weighted>
-10.4190

> <Gold.Chemscore.Internal_Hbond.Weighted>
0.0000

> <Gold.Chemscore.DEClash.Weighted>
0.1205

> <Gold.Chemscore.DEInternal.Weighted>
0.2962

> <Gold.Chemscore.Rot.Weighted>
3.9841

> <Gold.Chemscore.Internal.Correction.Weighted>
   9.000000E+99

> <Gold.Protein.RotatedTorsions>
[ 6907 6896 6895 6894 ] final -170.28 input  -60.11 | X-H torsion
[ 7974 7965 7964 7962 ] final  172.15 input  175.53 | X-H torsion
[ 8008 7997 7996 7995 ] final  -29.86 input   59.86 | X-H torsion
[ 10167 10162 10161 10158 ] final -175.75 input  -65.29 | X-H torsion
[ 10718 10713 10712 10709 ] final   14.85 input   66.30 | X-H torsion
[ 10763 10752 10751 10750 ] final  142.15 input  -60.55 | X-H torsion
[ 11005 11000 10999 10996 ] final  139.26 input  -57.11 | X-H torsion

> <Gold.Protein.ActiveResidues>
 VAL166  LYS551  ARG553  GLY616  TRP617  ASP618  TYR619  PRO620  LYS621  CYS622 
 ASP623  PHE694  ASN695  SER759  ASP760  ASP761  ALA762  ILE779  LEU786  VAL792 
 PHE793  MET794  SER795  GLU796  ALA797  LYS798  CYS799  TRP800  GLU811  SER814 

> <Gold.Protein.RotatedAtoms>
  151.5051  133.3496  159.2875 H   0  0  0  0  0  0  0  0  0  0  0  0  # atno 6907 bound_to 6896
  150.8748  134.8130  159.7192 H   0  0  0  0  0  0  0  0  0  0  0  0  # atno 6908 bound_to 6896
  152.4723  134.4941  159.9756 H   0  0  0  0  0  0  0  0  0  0  0  0  # atno 6909 bound_to 6896
  144.7275  139.9456  143.6430 H   0  0  0  0  0  0  0  0  0  0  0  0  # atno 7974 bound_to 7965
  154.4273  140.1807  156.1314 H   0  0  0  0  0  0  0  0  0  0  0  0  # atno 8008 bound_to 7997
  156.0064  140.3355  155.6872 H   0  0  0  0  0  0  0  0  0  0  0  0  # atno 8009 bound_to 7997
  155.6171  140.0656  157.2680 H   0  0  0  0  0  0  0  0  0  0  0  0  # atno 8010 bound_to 7997
  139.5565  144.1977  152.1167 H   0  0  0  0  0  0  0  0  0  0  0  0  # atno 10167 bound_to 10162
  157.0450  130.6246  149.5757 H   0  0  0  0  0  0  0  0  0  0  0  0  # atno 10718 bound_to 10713
  153.9511  135.2970  155.3438 H   0  0  0  0  0  0  0  0  0  0  0  0  # atno 10763 bound_to 10752
  154.7426  135.5018  153.9151 H   0  0  0  0  0  0  0  0  0  0  0  0  # atno 10764 bound_to 10752
  153.0993  135.6730  153.9811 H   0  0  0  0  0  0  0  0  0  0  0  0  # atno 10765 bound_to 10752
  140.0242  134.9382  157.0535 H   0  0  0  0  0  0  0  0  0  0  0  0  # atno 11005 bound_to 11000
  146.0751  139.3739  143.0499 LP  0  0  0  0  0  0  0  0  0  0  0  0  # atno 17320 bound_to 7965
  145.7916  140.9812  143.1046 LP  0  0  0  0  0  0  0  0  0  0  0  0  # atno 17321 bound_to 7965
  140.1482  144.5139  150.6703 LP  0  0  0  0  0  0  0  0  0  0  0  0  # atno 17342 bound_to 10162
  140.6838  143.2340  151.5314 LP  0  0  0  0  0  0  0  0  0  0  0  0  # atno 17343 bound_to 10162
  156.0026  130.5107  150.7717 LP  0  0  0  0  0  0  0  0  0  0  0  0  # atno 17370 bound_to 10713
  157.5075  131.0923  151.0239 LP  0  0  0  0  0  0  0  0  0  0  0  0  # atno 17371 bound_to 10713
  140.4335  134.1755  155.7169 LP  0  0  0  0  0  0  0  0  0  0  0  0  # atno 17394 bound_to 11000
  141.1792  133.8449  157.1316 LP  0  0  0  0  0  0  0  0  0  0  0  0  # atno 17395 bound_to 11000

$$$$
