AV-unprocessed.smi:2856|AV-procd|sdf|10993|dock3
  -GOLD-   2272015443D 1   1.00000     0.00000
 Structure written by MMmdl.
 37 38  0  0  0  0  0  0  0  0  1 V2000
  151.8375  138.6435  154.9120 C   0  0  0  0  0  0  0  0  0  0  0  0
  150.1940  137.8773  154.8746 S   0  0  0  0  0  0  0  0  0  0  0  0
  149.1900  139.2213  154.1636 C   0  0  2  0  0  0  0  0  0  0  0  0
  149.4610  140.5250  154.9385 C   0  0  0  0  0  0  0  0  0  0  0  0
  148.6116  141.6921  154.4157 C   0  0  0  0  0  0  0  0  0  0  0  0
  147.1180  141.3454  154.4648 C   0  0  0  0  0  0  0  0  0  0  0  0
  146.8272  140.0620  153.6740 C   0  0  0  0  0  0  0  0  0  0  0  0
  147.6800  138.8749  154.1681 C   0  0  1  0  0  0  0  0  0  0  0  0
  147.4223  137.7162  153.3162 N   0  0  0  0  0  0  0  0  0  0  0  0
  146.2257  137.1471  153.1133 C   0  0  0  0  0  0  0  0  0  0  0  0
  145.1782  137.5649  153.6074 O   0  0  0  0  0  0  0  0  0  0  0  0
  146.3293  136.0754  152.3094 N   0  0  0  0  0  0  0  0  0  0  0  0
  145.2924  135.2007  151.8965 C   0  0  0  0  0  0  0  0  0  0  0  0
  145.5274  134.2071  150.9091 C   0  0  0  0  0  0  0  0  0  0  0  0
  144.3132  133.5900  150.7985 C   0  0  0  0  0  0  0  0  0  0  0  0
  143.8209  132.4627  149.9574 C   0  0  0  0  0  0  0  0  0  0  0  0
  143.4138  134.1581  151.6468 O   0  0  0  0  0  0  0  0  0  0  0  0
  144.0478  135.1901  152.3485 N   0  0  0  0  0  0  0  0  0  0  0  0
  152.5585  137.9540  155.3506 H   0  0  0  0  0  0  0  0  0  0  0  0
  151.8212  139.5520  155.5136 H   0  0  0  0  0  0  0  0  0  0  0  0
  152.1754  138.8953  153.9072 H   0  0  0  0  0  0  0  0  0  0  0  0
  149.5173  139.3759  153.1345 H   0  0  0  0  0  0  0  0  0  0  0  0
  149.2499  140.3724  155.9979 H   0  0  0  0  0  0  0  0  0  0  0  0
  150.5180  140.7841  154.8708 H   0  0  0  0  0  0  0  0  0  0  0  0
  148.8050  142.5871  155.0077 H   0  0  0  0  0  0  0  0  0  0  0  0
  148.9022  141.9286  153.3915 H   0  0  0  0  0  0  0  0  0  0  0  0
  146.8043  141.2166  155.5015 H   0  0  0  0  0  0  0  0  0  0  0  0
  146.5302  142.1713  154.0632 H   0  0  0  0  0  0  0  0  0  0  0  0
  145.7669  139.8188  153.7524 H   0  0  0  0  0  0  0  0  0  0  0  0
  147.0237  140.2418  152.6160 H   0  0  0  0  0  0  0  0  0  0  0  0
  147.3924  138.6495  155.1969 H   0  0  0  0  0  0  0  0  0  0  0  0
  148.2246  137.3051  152.8623 H   0  0  0  0  0  0  0  0  0  0  0  0
  147.2516  135.8538  151.9654 H   0  0  0  0  0  0  0  0  0  0  0  0
  146.4349  133.9814  150.3690 H   0  0  0  0  0  0  0  0  0  0  0  0
  144.6146  132.0798  149.3156 H   0  0  0  0  0  0  0  0  0  0  0  0
  142.9981  132.7869  149.3201 H   0  0  0  0  0  0  0  0  0  0  0  0
  143.4647  131.6424  150.5806 H   0  0  0  0  0  0  0  0  0  0  0  0
  1  2  1  0  0  0  0
  1 19  1  0  0  0  0
  1 20  1  0  0  0  0
  1 21  1  0  0  0  0
  2  3  1  0  0  0  0
  3  8  1  0  0  0  0
  3  4  1  0  0  0  0
  3 22  1  0  0  0  0
  4  5  1  0  0  0  0
  4 23  1  0  0  0  0
  4 24  1  0  0  0  0
  5  6  1  0  0  0  0
  5 25  1  0  0  0  0
  5 26  1  0  0  0  0
  6  7  1  0  0  0  0
  6 27  1  0  0  0  0
  6 28  1  0  0  0  0
  7  8  1  0  0  0  0
  7 29  1  0  0  0  0
  7 30  1  0  0  0  0
  8  9  1  0  0  0  0
  8 31  1  0  0  0  0
  9 10  1  0  0  0  0
  9 32  1  0  0  0  0
 10 11  2  0  0  0  0
 10 12  1  0  0  0  0
 12 13  1  0  0  0  0
 12 33  1  0  0  0  0
 13 18  2  0  0  0  0
 13 14  1  0  0  0  0
 14 15  2  0  0  0  0
 14 34  1  0  0  0  0
 15 16  1  0  0  0  0
 15 17  1  0  0  0  0
 16 35  1  0  0  0  0
 16 36  1  0  0  0  0
 16 37  1  0  0  0  0
 17 18  1  0  0  0  0
M  END
> <s_m_source_file>
AV-unprocessed.smi

> <i_m_source_file_index>
2856

> <i_lp_mmshare_version>
43012

> <i_f3d_flags>
0

> <s_epik_input>
W0NIM11TW0NAQEhdMVtDSDJdW0NIMl1bQ0gyXVtDSDJdW0NASF0xW05IXUMoPU8pW05IXWMyW2NIXWMoW0NIM10pb24y

> <s_epik_cmdline>
J2VwaWtfcHl0aG9uJywgJy1waCcsICc3LjAnLCAnLXRuJywgJzgnLCAnLW1hJywgJzIwMCcsICctbWV0YWxfYmluZGluZycsICctaW1hZScsICc8aW5maWxlLm1hZT4nLCAnLW9tYWUnLCAnPG91dGZpbGUubWFlPic=

> <r_lp_tautomer_probability>
1

> <r_epik_Ionization_Penalty>
2.20874e-05

> <r_epik_Ionization_Penalty_Charging>
0

> <r_epik_Ionization_Penalty_Neutral>
2.20874e-05

> <r_epik_State_Penalty>
-0

> <r_epik_Charging_Adjusted_Penalty>
0

> <i_epik_Tot_Q>
0

> <i_epik_Tot_abs_Q>
0

> <r_epik_Metal_State_Penalty>
-0

> <b_epik_Metal_Only>
0

> <s_lp_Force_Field>
OPLS_2005

> <r_lp_Energy>
6.84472

> <b_lp_Chiralities_Consistent>
1

> <s_lp_Variant>
AV-unprocessed.smi:2856-1

> <Gold.Version>
5.8.1

> <Gold.Id.Protein>
6NUR|6NUR_protein|mol2

> <Gold.PLP.Fitness>
36.7208

> <Gold.PLP.PLP>
-30.8185

> <Gold.PLP.part.hbond>
-2.0000

> <Gold.PLP.part.metal>
0.0000

> <Gold.PLP.part.buried>
-3.0328

> <Gold.PLP.part.nonpolar>
-26.5340

> <Gold.PLP.part.repulsive>
0.4996

> <Gold.PLP.ligand.clash>
0.0000

> <Gold.PLP.ligand.torsion>
0.0523

> <Gold.PLP.Chemscore.Hbond>
2.0000

> <Gold.PLP.Chemscore.CHOScore>
0.0000

> <Gold.PLP.Chemscore.Metal>
0.0000

> <Gold.Chemscore.Hbonds>
donor molecule, donor type, donor heavy atom, donor atom, acceptor molecule, acceptor atom, score
      L1  H     9    32       P1  7948  1.00
      L1  H    12    33       P1  7948  1.00

> <Gold.PLP.Chemscore.Internal.Correction>
0.0070

> <Gold.Rescore>
     Score         DG    S(hbond)    S(metal)    S(lipo)     H(rot)  DE(clash)    DE(int)     intcor
     14.90     -17.38       1.92        0.00      73.34       1.21       0.08       2.40       ----

> <Gold.Chemscore.Fitness>
14.9028

> <Gold.Chemscore.DG>
-17.3795

> <Gold.Chemscore.ZeroCoef>
-5.4800

> <Gold.Chemscore.Hbond>
1.9216

> <Gold.Chemscore.Metal>
0.0000

> <Gold.Chemscore.Lipo>
73.3437

> <Gold.Chemscore.Internal_Hbond>
0.0000

> <Gold.Chemscore.DEClash>
0.0804

> <Gold.Chemscore.DEInternal>
2.3963

> <Gold.Chemscore.Rot>
1.2109

> <Gold.Chemscore.Internal.Correction>
   9.000000E+99

> <Gold.Chemscore.Hbonds>
donor molecule, donor type, donor heavy atom, donor atom, acceptor molecule, acceptor atom, score
      L1  H     9    32       P1  7948  0.97
      L1  H    12    33       P1  7948  0.95

> <Gold.Chemscore.Hbond.Weighted>
-6.4183

> <Gold.Chemscore.Metal.Weighted>
-0.0000

> <Gold.Chemscore.Lipo.Weighted>
-8.5812

> <Gold.Chemscore.Internal_Hbond.Weighted>
0.0000

> <Gold.Chemscore.DEClash.Weighted>
0.0804

> <Gold.Chemscore.DEInternal.Weighted>
2.3963

> <Gold.Chemscore.Rot.Weighted>
3.1000

> <Gold.Chemscore.Internal.Correction.Weighted>
   9.000000E+99

> <Gold.Protein.RotatedTorsions>
[ 6907 6896 6895 6894 ] final  -16.33 input  -60.11 | X-H torsion
[ 7974 7965 7964 7962 ] final  -81.48 input  175.53 | X-H torsion
[ 8008 7997 7996 7995 ] final  -53.60 input   59.86 | X-H torsion
[ 10167 10162 10161 10158 ] final -122.42 input  -65.29 | X-H torsion
[ 10718 10713 10712 10709 ] final  173.22 input   66.30 | X-H torsion
[ 10763 10752 10751 10750 ] final   15.71 input  -60.55 | X-H torsion
[ 11005 11000 10999 10996 ] final -157.20 input  -57.11 | X-H torsion

> <Gold.Protein.ActiveResidues>
 VAL166  LYS551  ARG553  GLY616  TRP617  ASP618  TYR619  PRO620  LYS621  CYS622 
 ASP623  PHE694  ASN695  SER759  ASP760  ASP761  ALA762  ILE779  LEU786  VAL792 
 PHE793  MET794  SER795  GLU796  ALA797  LYS798  CYS799  TRP800  GLU811  SER814 

> <Gold.Protein.RotatedAtoms>
  151.3102  135.0792  159.9269 H   0  0  0  0  0  0  0  0  0  0  0  0  # atno 6907 bound_to 6896
  152.5279  133.9743  159.7787 H   0  0  0  0  0  0  0  0  0  0  0  0  # atno 6908 bound_to 6896
  151.0046  133.5972  159.2721 H   0  0  0  0  0  0  0  0  0  0  0  0  # atno 6909 bound_to 6896
  145.5461  140.9503  143.1524 H   0  0  0  0  0  0  0  0  0  0  0  0  # atno 7974 bound_to 7965
  154.4138  140.1196  156.5180 H   0  0  0  0  0  0  0  0  0  0  0  0  # atno 8008 bound_to 7997
  155.6732  140.3496  155.4807 H   0  0  0  0  0  0  0  0  0  0  0  0  # atno 8009 bound_to 7997
  155.9615  140.1124  157.0881 H   0  0  0  0  0  0  0  0  0  0  0  0  # atno 8010 bound_to 7997
  140.0144  143.5408  152.2249 H   0  0  0  0  0  0  0  0  0  0  0  0  # atno 10167 bound_to 10162
  156.9675  131.0080  151.2913 H   0  0  0  0  0  0  0  0  0  0  0  0  # atno 10718 bound_to 10713
  153.1499  135.6776  153.8897 H   0  0  0  0  0  0  0  0  0  0  0  0  # atno 10763 bound_to 10752
  153.8327  135.3115  155.3421 H   0  0  0  0  0  0  0  0  0  0  0  0  # atno 10764 bound_to 10752
  154.7854  135.4865  154.0021 H   0  0  0  0  0  0  0  0  0  0  0  0  # atno 10765 bound_to 10752
  140.6672  134.4286  157.5233 H   0  0  0  0  0  0  0  0  0  0  0  0  # atno 11005 bound_to 11000
  144.7552  139.7091  143.7257 LP  0  0  0  0  0  0  0  0  0  0  0  0  # atno 17320 bound_to 7965
  146.1948  139.5209  142.9781 LP  0  0  0  0  0  0  0  0  0  0  0  0  # atno 17321 bound_to 7965
  139.6182  144.7624  151.2798 LP  0  0  0  0  0  0  0  0  0  0  0  0  # atno 17342 bound_to 10162
  140.7368  143.6696  150.8093 LP  0  0  0  0  0  0  0  0  0  0  0  0  # atno 17343 bound_to 10162
  157.5615  130.8249  149.8272 LP  0  0  0  0  0  0  0  0  0  0  0  0  # atno 17370 bound_to 10713
  156.0296  130.3768  150.1724 LP  0  0  0  0  0  0  0  0  0  0  0  0  # atno 17371 bound_to 10713
  139.8993  134.8594  156.1965 LP  0  0  0  0  0  0  0  0  0  0  0  0  # atno 17394 bound_to 11000
  141.0420  133.6933  156.1614 LP  0  0  0  0  0  0  0  0  0  0  0  0  # atno 17395 bound_to 11000

$$$$
