AV-unprocessed.smi:1570|AV-procd|sdf|6320|dock1
  -GOLD-   22720 6523D 1   1.00000     0.00000
 Structure written by MMmdl.
 52 54  0  0  0  0  0  0  0  0  2 V2000
  151.6756  138.1209  158.9791 C   0  0  0  0  0  0  0  0  0  0  0  0
  152.6187  139.2973  158.6950 C   0  0  0  0  0  0  0  0  0  0  0  0
  151.9010  140.4125  158.0830 N   0  0  0  0  0  0  0  0  0  0  0  0
  151.2464  140.3954  156.8982 C   0  0  0  0  0  0  0  0  0  0  0  0
  151.1381  139.4281  156.1450 O   0  0  0  0  0  0  0  0  0  0  0  0
  150.7648  141.6395  156.6648 N   0  0  0  0  0  0  0  0  0  0  0  0
  150.0332  142.0862  155.4799 C   0  0  0  0  0  0  0  0  0  0  0  0
  149.1946  140.9529  154.8541 C   0  0  2  0  0  0  0  0  0  0  0  0
  150.0362  140.2215  153.9859 O   0  0  0  0  0  0  0  0  0  0  0  0
  147.9813  141.4658  154.0482 C   0  0  0  0  0  0  0  0  0  0  0  0
  146.7182  141.4193  154.8259 N   0  3  1  0  0  0  0  0  0  0  0  0
  145.6535  142.2968  154.2796 C   0  0  0  0  0  0  0  0  0  0  0  0
  144.3898  142.2484  155.1603 C   0  0  2  0  0  0  0  0  0  0  0  0
  144.5409  143.0046  156.4922 C   0  0  0  0  0  0  0  0  0  0  0  0
  143.9714  140.8963  155.3489 O   0  0  0  0  0  0  0  0  0  0  0  0
  144.9633  140.0337  155.9000 C   0  0  1  0  0  0  0  0  0  0  0  0
  144.3529  138.6337  156.0292 C   0  0  0  0  0  0  0  0  0  0  0  0
  146.2077  140.0396  154.9949 C   0  0  0  0  0  0  0  0  0  0  0  0
  151.1344  142.4793  157.7251 C   0  0  0  0  0  0  0  0  0  0  0  0
  150.8950  143.8466  157.9470 C   0  0  0  0  0  0  0  0  0  0  0  0
  151.4244  144.4115  159.1309 C   0  0  0  0  0  0  0  0  0  0  0  0
  152.1647  143.6193  160.0465 C   0  0  0  0  0  0  0  0  0  0  0  0
  152.3907  142.2449  159.7984 C   0  0  0  0  0  0  0  0  0  0  0  0
  151.8513  141.7085  158.6160 C   0  0  0  0  0  0  0  0  0  0  0  0
  152.2164  137.2916  159.4355 H   0  0  0  0  0  0  0  0  0  0  0  0
  151.2162  137.7528  158.0611 H   0  0  0  0  0  0  0  0  0  0  0  0
  150.8764  138.4117  159.6617 H   0  0  0  0  0  0  0  0  0  0  0  0
  153.0915  139.6250  159.6223 H   0  0  0  0  0  0  0  0  0  0  0  0
  153.4293  138.9778  158.0398 H   0  0  0  0  0  0  0  0  0  0  0  0
  149.3971  142.9386  155.7253 H   0  0  0  0  0  0  0  0  0  0  0  0
  150.7598  142.4568  154.7555 H   0  0  0  0  0  0  0  0  0  0  0  0
  148.8742  140.2776  155.6467 H   0  0  0  0  0  0  0  0  0  0  0  0
  149.6195  140.1633  153.1391 H   0  0  0  0  0  0  0  0  0  0  0  0
  148.1381  142.4895  153.7083 H   0  0  0  0  0  0  0  0  0  0  0  0
  147.8846  140.8593  153.1462 H   0  0  0  0  0  0  0  0  0  0  0  0
  146.0006  143.3260  154.1942 H   0  0  0  0  0  0  0  0  0  0  0  0
  145.4048  141.9675  153.2694 H   0  0  0  0  0  0  0  0  0  0  0  0
  143.5851  142.7383  154.6110 H   0  0  0  0  0  0  0  0  0  0  0  0
  144.7297  144.0637  156.3148 H   0  0  0  0  0  0  0  0  0  0  0  0
  145.3673  142.6263  157.0934 H   0  0  0  0  0  0  0  0  0  0  0  0
  143.6309  142.9285  157.0877 H   0  0  0  0  0  0  0  0  0  0  0  0
  145.2353  140.3756  156.8987 H   0  0  0  0  0  0  0  0  0  0  0  0
  145.0696  137.9305  156.4548 H   0  0  0  0  0  0  0  0  0  0  0  0
  144.0406  138.2470  155.0585 H   0  0  0  0  0  0  0  0  0  0  0  0
  143.4774  138.6488  156.6789 H   0  0  0  0  0  0  0  0  0  0  0  0
  145.9715  139.6162  154.0171 H   0  0  0  0  0  0  0  0  0  0  0  0
  146.9820  139.4120  155.4377 H   0  0  0  0  0  0  0  0  0  0  0  0
  150.3331  144.4448  157.2453 H   0  0  0  0  0  0  0  0  0  0  0  0
  151.2639  145.4590  159.3399 H   0  0  0  0  0  0  0  0  0  0  0  0
  152.5615  144.0715  160.9437 H   0  0  0  0  0  0  0  0  0  0  0  0
  152.9562  141.6384  160.4900 H   0  0  0  0  0  0  0  0  0  0  0  0
  146.9415  141.7556  155.7520 H   0  0  0  0  0  0  0  0  0  0  0  0
  1  2  1  0  0  0  0
  1 25  1  0  0  0  0
  1 26  1  0  0  0  0
  1 27  1  0  0  0  0
  2  3  1  0  0  0  0
  2 28  1  0  0  0  0
  2 29  1  0  0  0  0
  3 24  1  0  0  0  0
  3  4  1  0  0  0  0
  4  5  2  0  0  0  0
  4  6  1  0  0  0  0
  6  7  1  0  0  0  0
  6 19  1  0  0  0  0
  7  8  1  0  0  0  0
  7 30  1  0  0  0  0
  7 31  1  0  0  0  0
  8  9  1  0  0  0  0
  8 10  1  0  0  0  0
  8 32  1  0  0  0  0
  9 33  1  0  0  0  0
 10 11  1  0  0  0  0
 10 34  1  0  0  0  0
 10 35  1  0  0  0  0
 11 18  1  0  0  0  0
 11 12  1  0  0  0  0
 11 52  1  0  0  0  0
 12 13  1  0  0  0  0
 12 36  1  0  0  0  0
 12 37  1  0  0  0  0
 13 14  1  0  0  0  0
 13 15  1  0  0  0  0
 13 38  1  0  0  0  0
 14 39  1  0  0  0  0
 14 40  1  0  0  0  0
 14 41  1  0  0  0  0
 15 16  1  0  0  0  0
 16 17  1  0  0  0  0
 16 18  1  0  0  0  0
 16 42  1  0  0  0  0
 17 43  1  0  0  0  0
 17 44  1  0  0  0  0
 17 45  1  0  0  0  0
 18 46  1  0  0  0  0
 18 47  1  0  0  0  0
 19 24  2  0  0  0  0
 19 20  1  0  0  0  0
 20 21  2  0  0  0  0
 20 48  1  0  0  0  0
 21 22  1  0  0  0  0
 21 49  1  0  0  0  0
 22 23  2  0  0  0  0
 22 50  1  0  0  0  0
 23 24  1  0  0  0  0
 23 51  1  0  0  0  0
M  CHG  1  11   1
M  END
> <s_m_source_file>
AV-unprocessed.smi

> <i_m_source_file_index>
1570

> <i_lp_mmshare_version>
43012

> <i_f3d_flags>
0

> <s_epik_input>
W2NIXTFbY0hdW2NIXVtjSF1jKGMxMiluKFtDSDJdW0NIM10pYyg9TyluMltDSDJdW0NASF0oW09IXSlbQ0gyXU4zW0NIMl1bQ0BASF0oW0NIM10pT1tDQEBIXShbQ0gzXSlbQ0gyXTM=

> <s_epik_cmdline>
J2VwaWtfcHl0aG9uJywgJy1waCcsICc3LjAnLCAnLXRuJywgJzgnLCAnLW1hJywgJzIwMCcsICctbWV0YWxfYmluZGluZycsICctaW1hZScsICc8aW5maWxlLm1hZT4nLCAnLW9tYWUnLCAnPG91dGZpbGUubWFlPic=

> <r_epik_Ionization_Penalty>
0.706332

> <r_epik_Ionization_Penalty_Charging>
0.706318

> <r_epik_Ionization_Penalty_Neutral>
1.42224e-05

> <r_epik_State_Penalty>
0.729493

> <r_epik_Charging_Adjusted_Penalty>
1.43581

> <i_epik_Tot_Q>
1

> <i_epik_Tot_abs_Q>
1

> <r_epik_Metal_State_Penalty>
0.729493

> <b_epik_Metal_Only>
0

> <s_lp_Force_Field>
OPLS_2005

> <r_lp_Energy>
53.5828

> <b_lp_Chiralities_Consistent>
1

> <s_lp_Variant>
AV-unprocessed.smi:1570-9

> <Gold.Version>
5.8.1

> <Gold.Id.Protein>
6NUR|6NUR_protein|mol2

> <Gold.PLP.Fitness>
48.7397

> <Gold.PLP.PLP>
-45.6826

> <Gold.PLP.part.hbond>
-2.0000

> <Gold.PLP.part.metal>
0.0000

> <Gold.PLP.part.buried>
-3.8367

> <Gold.PLP.part.nonpolar>
-39.6852

> <Gold.PLP.part.repulsive>
0.2336

> <Gold.PLP.ligand.clash>
0.0000

> <Gold.PLP.ligand.torsion>
1.3212

> <Gold.PLP.Chemscore.Hbond>
1.8473

> <Gold.PLP.Chemscore.CHOScore>
0.0000

> <Gold.PLP.Chemscore.Metal>
0.0000

> <Gold.Chemscore.Hbonds>
donor molecule, donor type, donor heavy atom, donor atom, acceptor molecule, acceptor atom, score
      L1  H     9    33       P1  7957  1.00
      P1  H  7989  7998       L1     9  0.79

> <Gold.PLP.Chemscore.Internal.Correction>
0.1576

> <Gold.Rescore>
     Score         DG    S(hbond)    S(metal)    S(lipo)     H(rot)  DE(clash)    DE(int)     intcor
     12.76     -16.92       1.10        0.00     113.12       2.13       1.45       2.71       ----

> <Gold.Chemscore.Fitness>
12.7623

> <Gold.Chemscore.DG>
-16.9206

> <Gold.Chemscore.ZeroCoef>
-5.4800

> <Gold.Chemscore.Hbond>
1.0954

> <Gold.Chemscore.Metal>
0.0000

> <Gold.Chemscore.Lipo>
113.1249

> <Gold.Chemscore.Internal_Hbond>
0.0000

> <Gold.Chemscore.DEClash>
1.4529

> <Gold.Chemscore.DEInternal>
2.7054

> <Gold.Chemscore.Rot>
2.1303

> <Gold.Chemscore.Internal.Correction>
   9.000000E+99

> <Gold.Chemscore.Hbonds>
donor molecule, donor type, donor heavy atom, donor atom, acceptor molecule, acceptor atom, score
      L1  H     9    33       P1  7957  0.95
      P1  H  7989  7998       L1     9  0.18

> <Gold.Chemscore.Hbond.Weighted>
-3.6586

> <Gold.Chemscore.Metal.Weighted>
-0.0000

> <Gold.Chemscore.Lipo.Weighted>
-13.2356

> <Gold.Chemscore.Internal_Hbond.Weighted>
0.0000

> <Gold.Chemscore.DEClash.Weighted>
1.4529

> <Gold.Chemscore.DEInternal.Weighted>
2.7054

> <Gold.Chemscore.Rot.Weighted>
5.4535

> <Gold.Chemscore.Internal.Correction.Weighted>
   9.000000E+99

> <Gold.Protein.RotatedTorsions>
[ 6907 6896 6895 6894 ] final -150.20 input  -60.11 | X-H torsion
[ 7974 7965 7964 7962 ] final   76.91 input  175.53 | X-H torsion
[ 8008 7997 7996 7995 ] final   94.43 input   59.86 | X-H torsion
[ 10167 10162 10161 10158 ] final -113.99 input  -65.29 | X-H torsion
[ 10718 10713 10712 10709 ] final  -12.60 input   66.30 | X-H torsion
[ 10763 10752 10751 10750 ] final -119.58 input  -60.55 | X-H torsion
[ 11005 11000 10999 10996 ] final   71.99 input  -57.11 | X-H torsion

> <Gold.Protein.ActiveResidues>
 VAL166  LYS551  ARG553  GLY616  TRP617  ASP618  TYR619  PRO620  LYS621  CYS622 
 ASP623  PHE694  ASN695  SER759  ASP760  ASP761  ALA762  ILE779  LEU786  VAL792 
 PHE793  MET794  SER795  GLU796  ALA797  LYS798  CYS799  TRP800  GLU811  SER814 

> <Gold.Protein.RotatedAtoms>
  151.1951  133.4644  159.2595 H   0  0  0  0  0  0  0  0  0  0  0  0  # atno 6907 bound_to 6896
  151.1125  135.0034  159.8511 H   0  0  0  0  0  0  0  0  0  0  0  0  # atno 6908 bound_to 6896
  152.5451  134.1869  159.8711 H   0  0  0  0  0  0  0  0  0  0  0  0  # atno 6909 bound_to 6896
  145.6968  139.2569  143.1728 H   0  0  0  0  0  0  0  0  0  0  0  0  # atno 7974 bound_to 7965
  156.0578  140.3300  155.7426 H   0  0  0  0  0  0  0  0  0  0  0  0  # atno 8008 bound_to 7997
  155.5502  140.0609  157.2869 H   0  0  0  0  0  0  0  0  0  0  0  0  # atno 8009 bound_to 7997
  154.4466  140.1895  156.0667 H   0  0  0  0  0  0  0  0  0  0  0  0  # atno 8010 bound_to 7997
  140.1058  143.4572  152.1784 H   0  0  0  0  0  0  0  0  0  0  0  0  # atno 10167 bound_to 10162
  156.6423  130.4931  149.6090 H   0  0  0  0  0  0  0  0  0  0  0  0  # atno 10718 bound_to 10713
  154.8621  135.4233  154.2322 H   0  0  0  0  0  0  0  0  0  0  0  0  # atno 10763 bound_to 10752
  153.3304  135.6988  153.6958 H   0  0  0  0  0  0  0  0  0  0  0  0  # atno 10764 bound_to 10752
  153.5977  135.3543  155.2907 H   0  0  0  0  0  0  0  0  0  0  0  0  # atno 10765 bound_to 10752
  139.9514  134.7220  156.0853 H   0  0  0  0  0  0  0  0  0  0  0  0  # atno 11005 bound_to 11000
  146.0833  140.7739  142.9630 LP  0  0  0  0  0  0  0  0  0  0  0  0  # atno 17320 bound_to 7965
  144.6980  140.3524  143.7179 LP  0  0  0  0  0  0  0  0  0  0  0  0  # atno 17321 bound_to 7965
  139.5646  144.7427  151.4058 LP  0  0  0  0  0  0  0  0  0  0  0  0  # atno 17342 bound_to 10162
  140.6953  143.7764  150.7317 LP  0  0  0  0  0  0  0  0  0  0  0  0  # atno 17343 bound_to 10162
  156.2149  130.6701  151.1308 LP  0  0  0  0  0  0  0  0  0  0  0  0  # atno 17370 bound_to 10713
  157.7167  131.0705  150.6299 LP  0  0  0  0  0  0  0  0  0  0  0  0  # atno 17371 bound_to 10713
  141.1178  133.6622  156.3137 LP  0  0  0  0  0  0  0  0  0  0  0  0  # atno 17394 bound_to 11000
  140.5709  134.5841  157.5457 LP  0  0  0  0  0  0  0  0  0  0  0  0  # atno 17395 bound_to 11000

$$$$
