AV-unprocessed.smi:1429|AV-procd|sdf|5820|dock5
  -GOLD-   22720 5473D 1   1.00000     0.00000
 Structure written by MMmdl.
 29 30  0  0  0  0  0  0  0  0  2 V2000
  145.4766  132.9884  162.6050 C   0  0  0  0  0  0  0  0  0  0  0  0
  145.9959  134.2999  162.1237 C   0  0  0  0  0  0  0  0  0  0  0  0
  145.4472  135.4677  162.4615 N   0  0  0  0  0  0  0  0  0  0  0  0
  146.1109  136.5400  161.8858 N   0  0  0  0  0  0  0  0  0  0  0  0
  147.1557  136.1790  161.1174 C   0  0  0  0  0  0  0  0  0  0  0  0
  147.9785  137.0109  160.4396 N   0  5  0  0  0  0  0  0  0  0  0  0
  148.7350  136.6689  159.3654 C   0  0  0  0  0  0  0  0  0  0  0  0
  149.2572  135.5772  159.1307 O   0  0  0  0  0  0  0  0  0  0  0  0
  148.8979  137.6741  158.4947 N   0  0  0  0  0  0  0  0  0  0  0  0
  149.6599  137.5978  157.2543 C   0  0  0  0  0  0  0  0  0  0  0  0
  150.1658  138.9866  156.8321 C   0  0  2  0  0  0  0  0  0  0  0  0
  149.1169  140.0812  156.8631 C   0  0  0  0  0  0  0  0  0  0  0  0
  149.7463  141.1457  155.9697 C   0  0  0  0  0  0  0  0  0  0  0  0
  150.5353  140.4398  155.0158 O   0  0  0  0  0  0  0  0  0  0  0  0
  150.6251  139.0645  155.3768 C   0  0  0  0  0  0  0  0  0  0  0  0
  147.3849  134.4311  161.0613 S   0  0  0  0  0  0  0  0  0  0  0  0
  144.6067  133.1308  163.2470 H   0  0  0  0  0  0  0  0  0  0  0  0
  146.2481  132.4678  163.1724 H   0  0  0  0  0  0  0  0  0  0  0  0
  145.1866  132.3691  161.7561 H   0  0  0  0  0  0  0  0  0  0  0  0
  148.4584  138.5564  158.7117 H   0  0  0  0  0  0  0  0  0  0  0  0
  150.5059  136.9236  157.3949 H   0  0  0  0  0  0  0  0  0  0  0  0
  149.0341  137.1676  156.4705 H   0  0  0  0  0  0  0  0  0  0  0  0
  150.9980  139.2806  157.4744 H   0  0  0  0  0  0  0  0  0  0  0  0
  148.1839  139.7265  156.4225 H   0  0  0  0  0  0  0  0  0  0  0  0
  148.9029  140.4446  157.8685 H   0  0  0  0  0  0  0  0  0  0  0  0
  149.0002  141.7749  155.4837 H   0  0  0  0  0  0  0  0  0  0  0  0
  150.4044  141.7909  156.5530 H   0  0  0  0  0  0  0  0  0  0  0  0
  151.6361  138.6810  155.2371 H   0  0  0  0  0  0  0  0  0  0  0  0
  149.9562  138.4958  154.7293 H   0  0  0  0  0  0  0  0  0  0  0  0
  1  2  1  0  0  0  0
  1 17  1  0  0  0  0
  1 18  1  0  0  0  0
  1 19  1  0  0  0  0
  2 16  1  0  0  0  0
  2  3  2  0  0  0  0
  3  4  1  0  0  0  0
  4  5  2  0  0  0  0
  5  6  1  0  0  0  0
  5 16  1  0  0  0  0
  6  7  1  0  0  0  0
  7  8  2  0  0  0  0
  7  9  1  0  0  0  0
  9 10  1  0  0  0  0
  9 20  1  0  0  0  0
 10 11  1  0  0  0  0
 10 21  1  0  0  0  0
 10 22  1  0  0  0  0
 11 15  1  0  0  0  0
 11 12  1  0  0  0  0
 11 23  1  0  0  0  0
 12 13  1  0  0  0  0
 12 24  1  0  0  0  0
 12 25  1  0  0  0  0
 13 14  1  0  0  0  0
 13 26  1  0  0  0  0
 13 27  1  0  0  0  0
 14 15  1  0  0  0  0
 15 28  1  0  0  0  0
 15 29  1  0  0  0  0
M  CHG  1   6  -1
M  END
> <s_m_source_file>
AV-unprocessed.smi

> <i_m_source_file_index>
1429

> <i_lp_mmshare_version>
43012

> <i_f3d_flags>
0

> <s_epik_input>
W0NIM11jMW5uYyhzMSlbTkhdQyg9TylbTkhdW0NIMl1bQ0BASF0yW0NIMl1bQ0gyXU9bQ0gyXTI=

> <s_epik_cmdline>
J2VwaWtfcHl0aG9uJywgJy1waCcsICc3LjAnLCAnLXRuJywgJzgnLCAnLW1hJywgJzIwMCcsICctbWV0YWxfYmluZGluZycsICctaW1hZScsICc8aW5maWxlLm1hZT4nLCAnLW9tYWUnLCAnPG91dGZpbGUubWFlPic=

> <r_lp_tautomer_probability>
1

> <r_epik_Ionization_Penalty>
4.4122

> <r_epik_Ionization_Penalty_Charging>
4.26477

> <r_epik_Ionization_Penalty_Neutral>
0.147429

> <r_epik_State_Penalty>
4.26433

> <r_epik_Charging_Adjusted_Penalty>
8.5291

> <i_epik_Tot_Q>
-1

> <i_epik_Tot_abs_Q>
1

> <r_epik_Metal_State_Penalty>
0.713483

> <b_epik_Metal_Only>
1

> <s_lp_Force_Field>
OPLS_2005

> <r_lp_Energy>
20.5351

> <b_lp_Chiralities_Consistent>
1

> <s_lp_Variant>
AV-unprocessed.smi:1429-3

> <Gold.Version>
5.8.1

> <Gold.Id.Protein>
6NUR|6NUR_protein|mol2

> <Gold.PLP.Fitness>
36.1537

> <Gold.PLP.PLP>
-22.3587

> <Gold.PLP.part.hbond>
-4.0000

> <Gold.PLP.part.metal>
0.0000

> <Gold.PLP.part.buried>
-3.9393

> <Gold.PLP.part.nonpolar>
-14.9619

> <Gold.PLP.part.repulsive>
0.2142

> <Gold.PLP.ligand.clash>
0.0000

> <Gold.PLP.ligand.torsion>
0.5940

> <Gold.PLP.Chemscore.Hbond>
4.9868

> <Gold.PLP.Chemscore.CHOScore>
0.0000

> <Gold.PLP.Chemscore.Metal>
0.0000

> <Gold.Chemscore.Hbonds>
donor molecule, donor type, donor heavy atom, donor atom, acceptor molecule, acceptor atom, score
      P1  H  6896  6908       L1     8  1.00
      P1  H  6931  6943       L1     6  1.01
      P1  H  6934  6947       L1     6  0.88
      P1  H  7989  7998       L1    14  1.00

> <Gold.PLP.Chemscore.Internal.Correction>
0.0224

> <Gold.Rescore>
     Score         DG    S(hbond)    S(metal)    S(lipo)     H(rot)  DE(clash)    DE(int)     intcor
     14.21     -16.03       2.66        0.00      42.69       1.30       0.00       1.82       ----

> <Gold.Chemscore.Fitness>
14.2051

> <Gold.Chemscore.DG>
-16.0277

> <Gold.Chemscore.ZeroCoef>
-5.4800

> <Gold.Chemscore.Hbond>
2.6576

> <Gold.Chemscore.Metal>
0.0000

> <Gold.Chemscore.Lipo>
42.6861

> <Gold.Chemscore.Internal_Hbond>
0.0000

> <Gold.Chemscore.DEClash>
0.0029

> <Gold.Chemscore.DEInternal>
1.8197

> <Gold.Chemscore.Rot>
1.2980

> <Gold.Chemscore.Internal.Correction>
   9.000000E+99

> <Gold.Chemscore.Hbonds>
donor molecule, donor type, donor heavy atom, donor atom, acceptor molecule, acceptor atom, score
      P1  H  6896  6908       L1     8  1.00
      P1  H  6931  6943       L1     6  0.28
      P1  H  6934  6947       L1     6  0.19
      P1  H  7989  7998       L1    14  0.82

> <Gold.Chemscore.Hbond.Weighted>
-8.8763

> <Gold.Chemscore.Metal.Weighted>
-0.0000

> <Gold.Chemscore.Lipo.Weighted>
-4.9943

> <Gold.Chemscore.Internal_Hbond.Weighted>
0.0000

> <Gold.Chemscore.DEClash.Weighted>
0.0029

> <Gold.Chemscore.DEInternal.Weighted>
1.8197

> <Gold.Chemscore.Rot.Weighted>
3.3229

> <Gold.Chemscore.Internal.Correction.Weighted>
   9.000000E+99

> <Gold.Protein.RotatedTorsions>
[ 6907 6896 6895 6894 ] final  174.71 input  -60.11 | X-H torsion
[ 7974 7965 7964 7962 ] final  150.36 input  175.53 | X-H torsion
[ 8008 7997 7996 7995 ] final    0.93 input   59.86 | X-H torsion
[ 10167 10162 10161 10158 ] final  150.90 input  -65.29 | X-H torsion
[ 10718 10713 10712 10709 ] final -173.48 input   66.30 | X-H torsion
[ 10763 10752 10751 10750 ] final -105.49 input  -60.55 | X-H torsion
[ 11005 11000 10999 10996 ] final -168.79 input  -57.11 | X-H torsion

> <Gold.Protein.ActiveResidues>
 VAL166  LYS551  ARG553  GLY616  TRP617  ASP618  TYR619  PRO620  LYS621  CYS622 
 ASP623  PHE694  ASN695  SER759  ASP760  ASP761  ALA762  ILE779  LEU786  VAL792 
 PHE793  MET794  SER795  GLU796  ALA797  LYS798  CYS799  TRP800  GLU811  SER814 

> <Gold.Protein.RotatedAtoms>
  151.7479  133.3325  159.3383 H   0  0  0  0  0  0  0  0  0  0  0  0  # atno 6907 bound_to 6896
  150.7547  134.6219  159.6150 H   0  0  0  0  0  0  0  0  0  0  0  0  # atno 6908 bound_to 6896
  152.3488  134.7037  160.0294 H   0  0  0  0  0  0  0  0  0  0  0  0  # atno 6909 bound_to 6896
  144.8370  139.6398  143.6033 H   0  0  0  0  0  0  0  0  0  0  0  0  # atno 7974 bound_to 7965
  154.6738  140.2618  155.6979 H   0  0  0  0  0  0  0  0  0  0  0  0  # atno 8008 bound_to 7997
  156.2670  140.2824  156.1180 H   0  0  0  0  0  0  0  0  0  0  0  0  # atno 8009 bound_to 7997
  155.1129  140.0376  157.2719 H   0  0  0  0  0  0  0  0  0  0  0  0  # atno 8010 bound_to 7997
  139.4845  144.5485  151.7443 H   0  0  0  0  0  0  0  0  0  0  0  0  # atno 10167 bound_to 10162
  156.7709  130.9448  151.3120 H   0  0  0  0  0  0  0  0  0  0  0  0  # atno 10718 bound_to 10713
  154.7950  135.4747  154.0140 H   0  0  0  0  0  0  0  0  0  0  0  0  # atno 10763 bound_to 10752
  153.1689  135.6822  153.8642 H   0  0  0  0  0  0  0  0  0  0  0  0  # atno 10764 bound_to 10752
  153.8231  135.3201  155.3390 H   0  0  0  0  0  0  0  0  0  0  0  0  # atno 10765 bound_to 10752
  140.5380  134.5551  157.5092 H   0  0  0  0  0  0  0  0  0  0  0  0  # atno 11005 bound_to 11000
  146.2667  139.6538  142.9324 LP  0  0  0  0  0  0  0  0  0  0  0  0  # atno 17320 bound_to 7965
  145.4774  141.0437  143.2665 LP  0  0  0  0  0  0  0  0  0  0  0  0  # atno 17321 bound_to 7965
  140.5035  144.1134  150.5977 LP  0  0  0  0  0  0  0  0  0  0  0  0  # atno 17342 bound_to 10162
  140.4035  143.2692  151.9919 LP  0  0  0  0  0  0  0  0  0  0  0  0  # atno 17343 bound_to 10162
  157.6691  130.9035  150.0000 LP  0  0  0  0  0  0  0  0  0  0  0  0  # atno 17370 bound_to 10713
  156.1278  130.3644  149.9780 LP  0  0  0  0  0  0  0  0  0  0  0  0  # atno 17371 bound_to 10713
  139.9519  134.7602  156.0429 LP  0  0  0  0  0  0  0  0  0  0  0  0  # atno 17394 bound_to 11000
  141.1244  133.6603  156.3297 LP  0  0  0  0  0  0  0  0  0  0  0  0  # atno 17395 bound_to 11000

$$$$
