AV-unprocessed.smi:76|AV-procd|sdf|768|dock7
  -GOLD-   2262017113D 1   1.00000     0.00000
 Structure written by MMmdl.
 55 58  0  0  0  0  0  0  0  0  1 V2000
  152.8197  139.0343  158.3212 C   0  0  0  0  0  0  0  0  0  0  0  0
  151.7659  140.1584  158.2416 C   0  0  1  0  0  0  0  0  0  0  0  0
  152.2917  141.4202  158.9579 C   0  0  0  0  0  0  0  0  0  0  0  0
  151.2867  142.5867  158.8857 C   0  0  1  0  0  0  0  0  0  0  0  0
  151.8038  143.8500  159.6025 C   0  0  0  0  0  0  0  0  0  0  0  0
  152.8136  144.4005  158.9277 F   0  0  0  0  0  0  0  0  0  0  0  0
  150.8213  144.7439  159.7134 F   0  0  0  0  0  0  0  0  0  0  0  0
  152.2235  143.5389  160.8288 F   0  0  0  0  0  0  0  0  0  0  0  0
  150.9394  142.8550  157.4097 C   0  0  0  0  0  0  0  0  0  0  0  0
  150.4246  141.5799  156.7271 C   0  0  0  0  0  0  0  0  0  0  0  0
  151.3843  140.4859  156.8604 N   0  0  0  0  0  0  0  0  0  0  0  0
  151.0313  139.4370  156.0843 C   0  0  0  0  0  0  0  0  0  0  0  0
  151.1814  139.5808  154.7451 N   0  0  0  0  0  0  0  0  0  0  0  0
  150.8626  138.5736  153.9267 C   0  0  0  0  0  0  0  0  0  0  0  0
  150.3819  137.3672  154.2358 N   0  0  0  0  0  0  0  0  0  0  0  0
  150.2160  137.2259  155.5824 C   0  0  0  0  0  0  0  0  0  0  0  0
  150.5174  138.2025  156.5725 C   0  0  0  0  0  0  0  0  0  0  0  0
  150.2312  137.7015  157.8361 N   0  0  0  0  0  0  0  0  0  0  0  0
  149.7898  136.4954  157.6061 C   0  0  0  0  0  0  0  0  0  0  0  0
  149.7291  136.1323  156.2786 N   0  0  0  0  0  0  0  0  0  0  0  0
  149.2837  134.8524  155.7444 C   0  0  0  0  0  0  0  0  0  0  0  0
  150.1033  133.6120  156.2241 C   0  0  0  0  0  0  0  0  0  0  0  0
  151.5820  133.9965  156.4953 C   0  0  0  0  0  0  0  0  0  0  0  0
  152.2396  133.0552  157.3197 O   0  0  0  0  0  0  0  0  0  0  0  0
  149.4796  133.0274  157.5163 C   0  0  0  0  0  0  0  0  0  0  0  0
  148.1355  132.3174  157.2656 C   0  0  0  0  0  0  0  0  0  0  0  0
  148.2923  131.3017  156.2827 O   0  0  0  0  0  0  0  0  0  0  0  0
  148.7197  131.8087  155.0249 C   0  0  0  0  0  0  0  0  0  0  0  0
  150.1004  132.4709  155.1755 C   0  0  0  0  0  0  0  0  0  0  0  0
  153.1173  138.8518  159.3540 H   0  0  0  0  0  0  0  0  0  0  0  0
  153.7173  139.2931  157.7584 H   0  0  0  0  0  0  0  0  0  0  0  0
  152.4409  138.0897  157.9302 H   0  0  0  0  0  0  0  0  0  0  0  0
  150.8723  139.8253  158.7705 H   0  0  0  0  0  0  0  0  0  0  0  0
  152.5084  141.1841  160.0002 H   0  0  0  0  0  0  0  0  0  0  0  0
  153.2380  141.7267  158.5097 H   0  0  0  0  0  0  0  0  0  0  0  0
  150.3730  142.2716  159.3922 H   0  0  0  0  0  0  0  0  0  0  0  0
  150.1847  143.6380  157.3341 H   0  0  0  0  0  0  0  0  0  0  0  0
  151.8205  143.2205  156.8805 H   0  0  0  0  0  0  0  0  0  0  0  0
  149.4719  141.2862  157.1702 H   0  0  0  0  0  0  0  0  0  0  0  0
  150.2354  141.7823  155.6716 H   0  0  0  0  0  0  0  0  0  0  0  0
  151.0147  138.7610  152.8738 H   0  0  0  0  0  0  0  0  0  0  0  0
  149.4878  135.8348  158.4058 H   0  0  0  0  0  0  0  0  0  0  0  0
  148.2316  134.7282  156.0031 H   0  0  0  0  0  0  0  0  0  0  0  0
  149.2987  134.9358  154.6586 H   0  0  0  0  0  0  0  0  0  0  0  0
  152.1383  134.0598  155.5592 H   0  0  0  0  0  0  0  0  0  0  0  0
  151.6547  134.9803  156.9593 H   0  0  0  0  0  0  0  0  0  0  0  0
  152.2342  132.2179  156.8801 H   0  0  0  0  0  0  0  0  0  0  0  0
  150.1670  132.3035  157.9565 H   0  0  0  0  0  0  0  0  0  0  0  0
  149.3464  133.8085  158.2655 H   0  0  0  0  0  0  0  0  0  0  0  0
  147.7865  131.8538  158.1885 H   0  0  0  0  0  0  0  0  0  0  0  0
  147.3598  133.0199  156.9602 H   0  0  0  0  0  0  0  0  0  0  0  0
  148.7826  130.9797  154.3199 H   0  0  0  0  0  0  0  0  0  0  0  0
  147.9801  132.5024  154.6249 H   0  0  0  0  0  0  0  0  0  0  0  0
  150.4601  132.8202  154.2085 H   0  0  0  0  0  0  0  0  0  0  0  0
  150.8055  131.6968  155.4821 H   0  0  0  0  0  0  0  0  0  0  0  0
  1  2  1  0  0  0  0
  1 30  1  0  0  0  0
  1 31  1  0  0  0  0
  1 32  1  0  0  0  0
  2 11  1  0  0  0  0
  2  3  1  0  0  0  0
  2 33  1  0  0  0  0
  3  4  1  0  0  0  0
  3 34  1  0  0  0  0
  3 35  1  0  0  0  0
  4  5  1  0  0  0  0
  4  9  1  0  0  0  0
  4 36  1  0  0  0  0
  5  6  1  0  0  0  0
  5  7  1  0  0  0  0
  5  8  1  0  0  0  0
  9 10  1  0  0  0  0
  9 37  1  0  0  0  0
  9 38  1  0  0  0  0
 10 11  1  0  0  0  0
 10 39  1  0  0  0  0
 10 40  1  0  0  0  0
 11 12  1  0  0  0  0
 12 17  1  0  0  0  0
 12 13  2  0  0  0  0
 13 14  1  0  0  0  0
 14 15  2  0  0  0  0
 14 41  1  0  0  0  0
 15 16  1  0  0  0  0
 16 20  1  0  0  0  0
 16 17  2  0  0  0  0
 17 18  1  0  0  0  0
 18 19  2  0  0  0  0
 19 20  1  0  0  0  0
 19 42  1  0  0  0  0
 20 21  1  0  0  0  0
 21 22  1  0  0  0  0
 21 43  1  0  0  0  0
 21 44  1  0  0  0  0
 22 29  1  0  0  0  0
 22 23  1  0  0  0  0
 22 25  1  0  0  0  0
 23 24  1  0  0  0  0
 23 45  1  0  0  0  0
 23 46  1  0  0  0  0
 24 47  1  0  0  0  0
 25 26  1  0  0  0  0
 25 48  1  0  0  0  0
 25 49  1  0  0  0  0
 26 27  1  0  0  0  0
 26 50  1  0  0  0  0
 26 51  1  0  0  0  0
 27 28  1  0  0  0  0
 28 29  1  0  0  0  0
 28 52  1  0  0  0  0
 28 53  1  0  0  0  0
 29 54  1  0  0  0  0
 29 55  1  0  0  0  0
M  END
> <s_m_source_file>
AV-unprocessed.smi

> <i_m_source_file_index>
76

> <i_lp_mmshare_version>
43012

> <i_f3d_flags>
0

> <s_epik_input>
W0NIM11bQ0BASF0xW0NIMl1bQ0BASF0oQyhGKShGKUYpW0NIMl1bQ0gyXU4xYyhuW2NIXW4yKWMoYzIzKW5bY0hdbjNbQ0gyXUM0KFtDSDJdW09IXSlbQ0gyXVtDSDJdT1tDSDJdW0NIMl00

> <s_epik_cmdline>
J2VwaWtfcHl0aG9uJywgJy1waCcsICc3LjAnLCAnLXRuJywgJzgnLCAnLW1hJywgJzIwMCcsICctbWV0YWxfYmluZGluZycsICctaW1hZScsICc8aW5maWxlLm1hZT4nLCAnLW9tYWUnLCAnPG91dGZpbGUubWFlPic=

> <r_lp_tautomer_probability>
1

> <r_epik_Ionization_Penalty>
0.00244097

> <r_epik_Ionization_Penalty_Charging>
0

> <r_epik_Ionization_Penalty_Neutral>
0.00244097

> <r_epik_State_Penalty>
0.00151846

> <r_epik_Charging_Adjusted_Penalty>
0.00151846

> <i_epik_Tot_Q>
0

> <i_epik_Tot_abs_Q>
0

> <r_epik_Metal_State_Penalty>
-0

> <b_epik_Metal_Only>
0

> <s_lp_Force_Field>
OPLS_2005

> <r_lp_Energy>
36.6064

> <b_lp_Chiralities_Consistent>
1

> <s_lp_Variant>
AV-unprocessed.smi:76-2

> <Gold.Version>
5.8.1

> <Gold.Id.Protein>
6NUR|6NUR_protein|mol2

> <Gold.PLP.Fitness>
46.1023

> <Gold.PLP.PLP>
-41.2405

> <Gold.PLP.part.hbond>
-2.0000

> <Gold.PLP.part.metal>
0.0000

> <Gold.PLP.part.buried>
-7.7440

> <Gold.PLP.part.nonpolar>
-33.2063

> <Gold.PLP.part.repulsive>
1.4159

> <Gold.PLP.ligand.clash>
0.0000

> <Gold.PLP.ligand.torsion>
1.3880

> <Gold.PLP.Chemscore.Hbond>
1.7680

> <Gold.PLP.Chemscore.CHOScore>
0.7064

> <Gold.PLP.Chemscore.Metal>
0.0000

> <Gold.Chemscore.Hbonds>
donor molecule, donor type, donor heavy atom, donor atom, acceptor molecule, acceptor atom, score
      P1  H  6896  6908       L1    24  0.77
      P1  H  7989  7998       L1    13  1.00
      L1  C    14    41       P1  7957  0.71

> <Gold.PLP.Chemscore.Internal.Correction>
0.2146

> <Gold.Rescore>
     Score         DG    S(hbond)    S(metal)    S(lipo)     H(rot)  DE(clash)    DE(int)     intcor
      6.59     -11.33       0.82        0.00      80.62       2.47       0.03       4.70       ----

> <Gold.Chemscore.Fitness>
6.5927

> <Gold.Chemscore.DG>
-11.3312

> <Gold.Chemscore.ZeroCoef>
-5.4800

> <Gold.Chemscore.Hbond>
0.8183

> <Gold.Chemscore.Metal>
0.0000

> <Gold.Chemscore.Lipo>
80.6166

> <Gold.Chemscore.Internal_Hbond>
0.0000

> <Gold.Chemscore.DEClash>
0.0337

> <Gold.Chemscore.DEInternal>
4.7049

> <Gold.Chemscore.Rot>
2.4665

> <Gold.Chemscore.Internal.Correction>
   9.000000E+99

> <Gold.Chemscore.Hbonds>
donor molecule, donor type, donor heavy atom, donor atom, acceptor molecule, acceptor atom, score
      P1  H  6896  6908       L1    24  0.55
      P1  H  7989  7998       L1    13  0.26

> <Gold.Chemscore.Hbond.Weighted>
-2.7333

> <Gold.Chemscore.Metal.Weighted>
-0.0000

> <Gold.Chemscore.Lipo.Weighted>
-9.4321

> <Gold.Chemscore.Internal_Hbond.Weighted>
0.0000

> <Gold.Chemscore.DEClash.Weighted>
0.0337

> <Gold.Chemscore.DEInternal.Weighted>
4.7049

> <Gold.Chemscore.Rot.Weighted>
6.3142

> <Gold.Chemscore.Internal.Correction.Weighted>
   9.000000E+99

> <Gold.Protein.RotatedTorsions>
[ 6907 6896 6895 6894 ] final   56.49 input  -60.11 | X-H torsion
[ 7974 7965 7964 7962 ] final  -37.33 input  175.53 | X-H torsion
[ 8008 7997 7996 7995 ] final -139.90 input   59.86 | X-H torsion
[ 10167 10162 10161 10158 ] final   -1.80 input  -65.29 | X-H torsion
[ 10718 10713 10712 10709 ] final  -96.10 input   66.30 | X-H torsion
[ 10763 10752 10751 10750 ] final  177.89 input  -60.55 | X-H torsion
[ 11005 11000 10999 10996 ] final -109.58 input  -57.11 | X-H torsion

> <Gold.Protein.ActiveResidues>
 VAL166  LYS551  ARG553  GLY616  TRP617  ASP618  TYR619  PRO620  LYS621  CYS622 
 ASP623  PHE694  ASN695  SER759  ASP760  ASP761  ALA762  ILE779  LEU786  VAL792 
 PHE793  MET794  SER795  GLU796  ALA797  LYS798  CYS799  TRP800  GLU811  SER814 

> <Gold.Protein.RotatedAtoms>
  152.3641  134.6830  160.0197 H   0  0  0  0  0  0  0  0  0  0  0  0  # atno 6907 bound_to 6896
  151.7143  133.3307  159.3307 H   0  0  0  0  0  0  0  0  0  0  0  0  # atno 6908 bound_to 6896
  150.7625  134.6438  159.6296 H   0  0  0  0  0  0  0  0  0  0  0  0  # atno 6909 bound_to 6896
  146.0584  140.6383  142.9008 H   0  0  0  0  0  0  0  0  0  0  0  0  # atno 7974 bound_to 7965
  155.4526  140.0540  157.2999 H   0  0  0  0  0  0  0  0  0  0  0  0  # atno 8008 bound_to 7997
  154.4771  140.2065  155.9808 H   0  0  0  0  0  0  0  0  0  0  0  0  # atno 8009 bound_to 7997
  156.1148  140.3198  155.8129 H   0  0  0  0  0  0  0  0  0  0  0  0  # atno 8010 bound_to 7997
  140.6825  143.6732  150.8167 H   0  0  0  0  0  0  0  0  0  0  0  0  # atno 10167 bound_to 10162
  156.0056  130.5137  150.6176 H   0  0  0  0  0  0  0  0  0  0  0  0  # atno 10718 bound_to 10713
  154.5005  135.2783  155.1424 H   0  0  0  0  0  0  0  0  0  0  0  0  # atno 10763 bound_to 10752
  154.3059  135.6238  153.5448 H   0  0  0  0  0  0  0  0  0  0  0  0  # atno 10764 bound_to 10752
  152.9902  135.5708  154.5447 H   0  0  0  0  0  0  0  0  0  0  0  0  # atno 10765 bound_to 10752
  141.0840  133.9172  157.2227 H   0  0  0  0  0  0  0  0  0  0  0  0  # atno 11005 bound_to 11000
  144.7161  140.4214  143.7043 LP  0  0  0  0  0  0  0  0  0  0  0  0  # atno 17320 bound_to 7965
  145.6603  139.1580  143.2812 LP  0  0  0  0  0  0  0  0  0  0  0  0  # atno 17321 bound_to 7965
  140.0434  143.5322  152.2707 LP  0  0  0  0  0  0  0  0  0  0  0  0  # atno 17342 bound_to 10162
  139.6158  144.7619  151.2849 LP  0  0  0  0  0  0  0  0  0  0  0  0  # atno 17343 bound_to 10162
  157.3997  131.0808  151.1319 LP  0  0  0  0  0  0  0  0  0  0  0  0  # atno 17370 bound_to 10713
  157.1985  130.6384  149.5730 LP  0  0  0  0  0  0  0  0  0  0  0  0  # atno 17371 bound_to 10713
  139.9656  135.0143  156.9377 LP  0  0  0  0  0  0  0  0  0  0  0  0  # atno 17394 bound_to 11000
  140.5406  134.0724  155.7340 LP  0  0  0  0  0  0  0  0  0  0  0  0  # atno 17395 bound_to 11000

$$$$
