AV-unprocessed.smi:1|AV-procd|sdf|13|dock3
  -GOLD-   2262015103D 1   1.00000     0.00000
 Structure written by MMmdl.
 57 62  0  0  0  0  0  0  0  0  1 V2000
  153.4907  139.8932  158.6499 O   0  0  0  0  0  0  0  0  0  0  0  0
  152.3361  140.2616  158.8824 C   0  0  0  0  0  0  0  0  0  0  0  0
  151.1839  139.4949  158.9979 N   0  0  0  0  0  0  0  0  0  0  0  0
  151.1135  138.3330  158.4220 C   0  0  0  0  0  0  0  0  0  0  0  0
  152.0227  137.6076  157.6419 N   0  0  0  0  0  0  0  0  0  0  0  0
  151.7956  136.3446  157.0751 C   0  0  0  0  0  0  0  0  0  0  0  0
  150.6900  135.6600  157.1971 N   0  0  0  0  0  0  0  0  0  0  0  0
  149.7508  136.3315  157.9669 C   0  0  0  0  0  0  0  0  0  0  0  0
  149.8579  137.5656  158.5734 C   0  0  0  0  0  0  0  0  0  0  0  0
  148.6918  137.8832  159.2603 N   0  0  0  0  0  0  0  0  0  0  0  0
  147.9251  136.8196  159.0375 C   0  0  0  0  0  0  0  0  0  0  0  0
  148.4752  135.8567  158.2741 N   0  0  0  0  0  0  0  0  0  0  0  0
  147.8197  134.5660  157.8921 C   0  0  2  0  0  0  0  0  0  0  0  0
  146.4860  134.5855  158.3086 O   0  0  0  0  0  0  0  0  0  0  0  0
  146.2405  133.5618  159.2694 C   0  0  1  0  0  0  0  0  0  0  0  0
  144.8010  133.0445  159.1678 C   0  0  0  0  0  0  0  0  0  0  0  0
  144.0329  133.6111  160.2163 O   0  0  0  0  0  0  0  0  0  0  0  0
  142.8205  134.1362  159.9569 C   0  0  0  0  0  0  0  0  0  0  0  0
  142.3922  134.3343  158.8180 O   0  0  0  0  0  0  0  0  0  0  0  0
  142.0505  134.4553  161.1938 C   0  0  0  0  0  0  0  0  0  0  0  0
  142.6679  134.2918  162.4559 C   0  0  0  0  0  0  0  0  0  0  0  0
  141.9646  134.5808  163.6416 C   0  0  0  0  0  0  0  0  0  0  0  0
  140.6350  135.0368  163.5794 C   0  0  0  0  0  0  0  0  0  0  0  0
  140.0095  135.2037  162.3301 C   0  0  0  0  0  0  0  0  0  0  0  0
  140.7113  134.9156  161.1432 C   0  0  0  0  0  0  0  0  0  0  0  0
  147.3126  132.5121  158.9823 C   0  0  1  0  0  0  0  0  0  0  0  0
  146.9410  131.6760  157.8984 O   0  0  0  0  0  0  0  0  0  0  0  0
  148.2737  131.4670  156.9130 S   0  0  0  0  0  0  0  0  0  0  0  0
  148.8537  130.1449  157.1938 O   0  0  0  0  0  0  0  0  0  0  0  0
  147.9149  131.9037  155.5550 O   0  0  0  0  0  0  0  0  0  0  0  0
  149.2644  132.6281  157.5952 O   0  0  0  0  0  0  0  0  0  0  0  0
  148.5108  133.3600  158.5462 C   0  0  1  0  0  0  0  0  0  0  0  0
  152.0988  141.7201  159.1016 C   0  0  0  0  0  0  0  0  0  0  0  0
  152.7964  142.4055  160.1187 C   0  0  0  0  0  0  0  0  0  0  0  0
  152.5674  143.7795  160.3294 C   0  0  0  0  0  0  0  0  0  0  0  0
  151.6397  144.4708  159.5262 C   0  0  0  0  0  0  0  0  0  0  0  0
  150.9398  143.7881  158.5124 C   0  0  0  0  0  0  0  0  0  0  0  0
  151.1679  142.4144  158.3003 C   0  0  0  0  0  0  0  0  0  0  0  0
  152.6388  135.9572  156.5019 H   0  0  0  0  0  0  0  0  0  0  0  0
  146.9273  136.7396  159.4432 H   0  0  0  0  0  0  0  0  0  0  0  0
  147.8523  134.5435  156.8019 H   0  0  0  0  0  0  0  0  0  0  0  0
  146.4111  133.9647  160.2671 H   0  0  0  0  0  0  0  0  0  0  0  0
  144.3693  133.2940  158.1977 H   0  0  0  0  0  0  0  0  0  0  0  0
  144.7902  131.9581  159.2660 H   0  0  0  0  0  0  0  0  0  0  0  0
  143.6875  133.9417  162.5285 H   0  0  0  0  0  0  0  0  0  0  0  0
  142.4462  134.4512  164.5995 H   0  0  0  0  0  0  0  0  0  0  0  0
  140.0956  135.2576  164.4886 H   0  0  0  0  0  0  0  0  0  0  0  0
  138.9887  135.5529  162.2810 H   0  0  0  0  0  0  0  0  0  0  0  0
  140.2006  135.0535  160.2013 H   0  0  0  0  0  0  0  0  0  0  0  0
  147.5339  131.8920  159.8516 H   0  0  0  0  0  0  0  0  0  0  0  0
  149.1165  133.6650  159.4000 H   0  0  0  0  0  0  0  0  0  0  0  0
  153.5074  141.8812  160.7407 H   0  0  0  0  0  0  0  0  0  0  0  0
  153.1018  144.3022  161.1088 H   0  0  0  0  0  0  0  0  0  0  0  0
  151.4634  145.5238  159.6889 H   0  0  0  0  0  0  0  0  0  0  0  0
  150.2265  144.3178  157.8984 H   0  0  0  0  0  0  0  0  0  0  0  0
  150.6251  141.8967  157.5226 H   0  0  0  0  0  0  0  0  0  0  0  0
  152.9224  138.0346  157.4726 H   0  0  0  0  0  0  0  0  0  0  0  0
  1  2  2  0  0  0  0
  2  3  1  0  0  0  0
  2 33  1  0  0  0  0
  3  4  2  0  0  0  0
  4  9  1  0  0  0  0
  4  5  1  0  0  0  0
  5  6  1  0  0  0  0
  5 57  1  0  0  0  0
  6  7  2  0  0  0  0
  6 39  1  0  0  0  0
  7  8  1  0  0  0  0
  8 12  1  0  0  0  0
  8  9  2  0  0  0  0
  9 10  1  0  0  0  0
 10 11  2  0  0  0  0
 11 12  1  0  0  0  0
 11 40  1  0  0  0  0
 12 13  1  0  0  0  0
 13 32  1  0  0  0  0
 13 14  1  0  0  0  0
 13 41  1  0  0  0  0
 14 15  1  0  0  0  0
 15 16  1  0  0  0  0
 15 26  1  0  0  0  0
 15 42  1  0  0  0  0
 16 17  1  0  0  0  0
 16 43  1  0  0  0  0
 16 44  1  0  0  0  0
 17 18  1  0  0  0  0
 18 19  2  0  0  0  0
 18 20  1  0  0  0  0
 20 25  1  0  0  0  0
 20 21  2  0  0  0  0
 21 22  1  0  0  0  0
 21 45  1  0  0  0  0
 22 23  2  0  0  0  0
 22 46  1  0  0  0  0
 23 24  1  0  0  0  0
 23 47  1  0  0  0  0
 24 25  2  0  0  0  0
 24 48  1  0  0  0  0
 25 49  1  0  0  0  0
 26 32  1  0  0  0  0
 26 27  1  0  0  0  0
 26 50  1  0  0  0  0
 27 28  1  0  0  0  0
 28 29  2  0  0  0  0
 28 30  2  0  0  0  0
 28 31  1  0  0  0  0
 31 32  1  0  0  0  0
 32 51  1  0  0  0  0
 33 38  1  0  0  0  0
 33 34  2  0  0  0  0
 34 35  1  0  0  0  0
 34 52  1  0  0  0  0
 35 36  2  0  0  0  0
 35 53  1  0  0  0  0
 36 37  1  0  0  0  0
 36 54  1  0  0  0  0
 37 38  2  0  0  0  0
 37 55  1  0  0  0  0
 38 56  1  0  0  0  0
M  END
> <s_m_source_file>
AV-unprocessed.smi

> <i_m_source_file_index>
1

> <i_lp_mmshare_version>
43012

> <i_f3d_flags>
0

> <s_epik_input>
W2NIXTFbY0hdW2NIXVtjSF1bY0hdYzFDKD1PKVtOSF1jKG5bY0hdbjIpYyhjMjMpbltjSF1uM1tDQEBIXShbQ0BIXShbQ0BIXTQ1KU9TKE81KSg9Tyk9TylPW0NASF00W0NIMl1PQyg9TyljNltjSF1bY0hdW2NIXVtjSF1bY0hdNg==

> <s_epik_cmdline>
J2VwaWtfcHl0aG9uJywgJy1waCcsICc3LjAnLCAnLXRuJywgJzgnLCAnLW1hJywgJzIwMCcsICctbWV0YWxfYmluZGluZycsICctaW1hZScsICc8aW5maWxlLm1hZT4nLCAnLW9tYWUnLCAnPG91dGZpbGUubWFlPic=

> <r_epik_Ionization_Penalty>
0.122545

> <r_epik_Ionization_Penalty_Charging>
0.122545

> <r_epik_Ionization_Penalty_Neutral>
7.8935e-16

> <r_epik_State_Penalty>
2.69178

> <r_epik_Charging_Adjusted_Penalty>
2.81433

> <i_epik_Tot_Q>
0

> <i_epik_Tot_abs_Q>
0

> <r_epik_Metal_State_Penalty>
3.02665

> <b_epik_Metal_Only>
0

> <s_epik_Chemistry_Notes>
This compound has an ester and may undergo hydrolysis at high or low pH. This compound contains an acetal/aminal-like group ( X-CH(R)-Y where X, Y are N, S, or O) that may be acid/base labile, releasing an aldehyde.

> <s_lp_Force_Field>
OPLS_2005

> <r_lp_Energy>
62.4827

> <b_lp_Chiralities_Consistent>
1

> <s_lp_Variant>
AV-unprocessed.smi:1-13

> <Gold.Version>
5.8.1

> <Gold.Id.Protein>
6NUR|6NUR_protein|mol2

> <Gold.PLP.Fitness>
46.5273

> <Gold.PLP.PLP>
-45.0026

> <Gold.PLP.part.hbond>
-4.3211

> <Gold.PLP.part.metal>
0.0000

> <Gold.PLP.part.buried>
-6.6085

> <Gold.PLP.part.nonpolar>
-34.9051

> <Gold.PLP.part.repulsive>
0.1143

> <Gold.PLP.ligand.clash>
0.0000

> <Gold.PLP.ligand.torsion>
2.3056

> <Gold.PLP.Chemscore.Hbond>
2.0000

> <Gold.PLP.Chemscore.CHOScore>
0.0000

> <Gold.PLP.Chemscore.Metal>
0.0000

> <Gold.Chemscore.Hbonds>
donor molecule, donor type, donor heavy atom, donor atom, acceptor molecule, acceptor atom, score
      P1  H  7997  8008       L1     1  1.00
      P1  H 11000 11005       L1    19  1.00

> <Gold.PLP.Chemscore.Internal.Correction>
0.1359

> <Gold.Rescore>
     Score         DG    S(hbond)    S(metal)    S(lipo)     H(rot)  DE(clash)    DE(int)     intcor
     17.76     -19.94       1.95        0.00     114.73       2.13       0.00       2.18       ----

> <Gold.Chemscore.Fitness>
17.7585

> <Gold.Chemscore.DG>
-19.9423

> <Gold.Chemscore.ZeroCoef>
-5.4800

> <Gold.Chemscore.Hbond>
1.9461

> <Gold.Chemscore.Metal>
0.0000

> <Gold.Chemscore.Lipo>
114.7323

> <Gold.Chemscore.Internal_Hbond>
0.0000

> <Gold.Chemscore.DEClash>
0.0004

> <Gold.Chemscore.DEInternal>
2.1835

> <Gold.Chemscore.Rot>
2.1333

> <Gold.Chemscore.Internal.Correction>
   9.000000E+99

> <Gold.Chemscore.Hbonds>
donor molecule, donor type, donor heavy atom, donor atom, acceptor molecule, acceptor atom, score
      P1  H  7997  8008       L1     1  0.95
      P1  H 11000 11005       L1    19  0.98

> <Gold.Chemscore.Hbond.Weighted>
-6.5000

> <Gold.Chemscore.Metal.Weighted>
-0.0000

> <Gold.Chemscore.Lipo.Weighted>
-13.4237

> <Gold.Chemscore.Internal_Hbond.Weighted>
0.0000

> <Gold.Chemscore.DEClash.Weighted>
0.0004

> <Gold.Chemscore.DEInternal.Weighted>
2.1835

> <Gold.Chemscore.Rot.Weighted>
5.4614

> <Gold.Chemscore.Internal.Correction.Weighted>
   9.000000E+99

> <Gold.Protein.RotatedTorsions>
[ 6907 6896 6895 6894 ] final  102.73 input  -60.11 | X-H torsion
[ 7974 7965 7964 7962 ] final  130.88 input  175.53 | X-H torsion
[ 8008 7997 7996 7995 ] final -105.54 input   59.86 | X-H torsion
[ 10167 10162 10161 10158 ] final  -45.08 input  -65.29 | X-H torsion
[ 10718 10713 10712 10709 ] final  -14.78 input   66.30 | X-H torsion
[ 10763 10752 10751 10750 ] final  175.38 input  -60.55 | X-H torsion
[ 11005 11000 10999 10996 ] final -137.57 input  -57.11 | X-H torsion

> <Gold.Protein.ActiveResidues>
 VAL166  LYS551  ARG553  GLY616  TRP617  ASP618  TYR619  PRO620  LYS621  CYS622 
 ASP623  PHE694  ASN695  SER759  ASP760  ASP761  ALA762  ILE779  LEU786  VAL792 
 PHE793  MET794  SER795  GLU796  ALA797  LYS798  CYS799  TRP800  GLU811  SER814 

> <Gold.Protein.RotatedAtoms>
  152.5316  133.9932  159.7860 H   0  0  0  0  0  0  0  0  0  0  0  0  # atno 6907 bound_to 6896
  151.0164  133.5909  159.2683 H   0  0  0  0  0  0  0  0  0  0  0  0  # atno 6908 bound_to 6896
  151.2965  135.0763  159.9276 H   0  0  0  0  0  0  0  0  0  0  0  0  # atno 6909 bound_to 6896
  145.0132  139.4201  143.5234 H   0  0  0  0  0  0  0  0  0  0  0  0  # atno 7974 bound_to 7965
  154.9014  140.0412  157.1895 H   0  0  0  0  0  0  0  0  0  0  0  0  # atno 8008 bound_to 7997
  154.8440  140.2919  155.5620 H   0  0  0  0  0  0  0  0  0  0  0  0  # atno 8009 bound_to 7997
  156.2993  140.2477  156.3388 H   0  0  0  0  0  0  0  0  0  0  0  0  # atno 8010 bound_to 7997
  140.6872  143.2897  151.3587 H   0  0  0  0  0  0  0  0  0  0  0  0  # atno 10167 bound_to 10162
  156.6110  130.4850  149.6201 H   0  0  0  0  0  0  0  0  0  0  0  0  # atno 10718 bound_to 10713
  154.4668  135.2769  155.1672 H   0  0  0  0  0  0  0  0  0  0  0  0  # atno 10763 bound_to 10752
  154.3438  135.6164  153.5613 H   0  0  0  0  0  0  0  0  0  0  0  0  # atno 10764 bound_to 10752
  152.9860  135.5795  154.5041 H   0  0  0  0  0  0  0  0  0  0  0  0  # atno 10765 bound_to 10752
  140.8699  134.2064  157.4657 H   0  0  0  0  0  0  0  0  0  0  0  0  # atno 11005 bound_to 11000
  146.3473  139.9588  142.8720 LP  0  0  0  0  0  0  0  0  0  0  0  0  # atno 17320 bound_to 7965
  145.1995  140.9848  143.4164 LP  0  0  0  0  0  0  0  0  0  0  0  0  # atno 17321 bound_to 7965
  139.6241  144.0849  152.2418 LP  0  0  0  0  0  0  0  0  0  0  0  0  # atno 17342 bound_to 10162
  140.0303  144.6086  150.7493 LP  0  0  0  0  0  0  0  0  0  0  0  0  # atno 17343 bound_to 10162
  156.2389  130.6839  151.1537 LP  0  0  0  0  0  0  0  0  0  0  0  0  # atno 17370 bound_to 10713
  157.7254  131.0653  150.5954 LP  0  0  0  0  0  0  0  0  0  0  0  0  # atno 17371 bound_to 10713
  139.8711  134.9769  156.4939 LP  0  0  0  0  0  0  0  0  0  0  0  0  # atno 17394 bound_to 11000
  140.8585  133.8077  155.9241 LP  0  0  0  0  0  0  0  0  0  0  0  0  # atno 17395 bound_to 11000

$$$$
