AV-unprocessed.smi:2226|AV-procd|sdf|9013|dock8
  -GOLD-   2272012213D 1   1.00000     0.00000
 Structure written by MMmdl.
 40 42  0  0  0  0  0  0  0  0  2 V2000
  147.5671  139.2288  152.2939 C   0  0  0  0  0  0  0  0  0  0  0  0
  148.0505  138.3912  153.4175 N   0  3  2  0  0  0  0  0  0  0  0  0
  146.9843  137.8453  154.2906 C   0  0  2  0  0  0  0  0  0  0  0  0
  146.3208  138.9596  155.1388 C   0  0  0  0  0  0  0  0  0  0  0  0
  147.3167  139.8452  155.9097 C   0  0  0  0  0  0  0  0  0  0  0  0
  148.5699  140.1882  155.0847 C   0  0  0  0  0  0  0  0  0  0  0  0
  149.1165  139.0088  154.2422 C   0  0  1  0  0  0  0  0  0  0  0  0
  149.8373  137.9028  155.0480 C   0  0  0  0  0  0  0  0  0  0  0  0
  148.9143  136.8990  155.7932 C   0  0  1  0  0  0  0  0  0  0  0  0
  148.7380  137.2256  157.2062 N   0  0  0  0  0  0  0  0  0  0  0  0
  148.9381  136.4009  158.2457 C   0  0  0  0  0  0  0  0  0  0  0  0
  149.3046  135.2325  158.0847 O   0  0  0  0  0  0  0  0  0  0  0  0
  148.6985  137.0732  159.4353 N   0  0  0  0  0  0  0  0  0  0  0  0
  148.0801  136.4727  160.4058 C   0  0  0  0  0  0  0  0  0  0  0  0
  147.5652  135.1872  160.5523 N   0  0  0  0  0  0  0  0  0  0  0  0
  147.0139  135.0883  161.7991 C   0  0  0  0  0  0  0  0  0  0  0  0
  147.1737  136.2562  162.4140 C   0  0  0  0  0  0  0  0  0  0  0  0
  147.8237  137.1225  161.5868 O   0  0  0  0  0  0  0  0  0  0  0  0
  147.5529  136.6522  155.0941 C   0  0  0  0  0  0  0  0  0  0  0  0
  147.0765  140.1388  152.6376 H   0  0  0  0  0  0  0  0  0  0  0  0
  146.8551  138.6718  151.6842 H   0  0  0  0  0  0  0  0  0  0  0  0
  148.3977  139.5164  151.6488 H   0  0  0  0  0  0  0  0  0  0  0  0
  146.2062  137.4333  153.6459 H   0  0  0  0  0  0  0  0  0  0  0  0
  145.7360  139.5997  154.4776 H   0  0  0  0  0  0  0  0  0  0  0  0
  145.5989  138.5260  155.8316 H   0  0  0  0  0  0  0  0  0  0  0  0
  146.8206  140.7670  156.2146 H   0  0  0  0  0  0  0  0  0  0  0  0
  147.5988  139.3731  156.8445 H   0  0  0  0  0  0  0  0  0  0  0  0
  148.3235  141.0124  154.4147 H   0  0  0  0  0  0  0  0  0  0  0  0
  149.3499  140.5740  155.7422 H   0  0  0  0  0  0  0  0  0  0  0  0
  149.8622  139.4244  153.5626 H   0  0  0  0  0  0  0  0  0  0  0  0
  150.4251  137.3237  154.3342 H   0  0  0  0  0  0  0  0  0  0  0  0
  150.5727  138.3435  155.7221 H   0  0  0  0  0  0  0  0  0  0  0  0
  149.4281  135.9356  155.7923 H   0  0  0  0  0  0  0  0  0  0  0  0
  148.4406  138.1675  157.4168 H   0  0  0  0  0  0  0  0  0  0  0  0
  147.5713  134.4306  159.8833 H   0  0  0  0  0  0  0  0  0  0  0  0
  146.5531  134.1663  162.1218 H   0  0  0  0  0  0  0  0  0  0  0  0
  146.8944  136.6133  163.3942 H   0  0  0  0  0  0  0  0  0  0  0  0
  146.8120  136.2800  155.8032 H   0  0  0  0  0  0  0  0  0  0  0  0
  147.6998  135.8355  154.3856 H   0  0  0  0  0  0  0  0  0  0  0  0
  148.4775  137.5905  152.9741 H   0  0  0  0  0  0  0  0  0  0  0  0
  1  2  1  0  0  0  0
  1 20  1  0  0  0  0
  1 21  1  0  0  0  0
  1 22  1  0  0  0  0
  2  7  1  0  0  0  0
  2  3  1  0  0  0  0
  2 40  1  0  0  0  0
  3 19  1  0  0  0  0
  3  4  1  0  0  0  0
  3 23  1  0  0  0  0
  4  5  1  0  0  0  0
  4 24  1  0  0  0  0
  4 25  1  0  0  0  0
  5  6  1  0  0  0  0
  5 26  1  0  0  0  0
  5 27  1  0  0  0  0
  6  7  1  0  0  0  0
  6 28  1  0  0  0  0
  6 29  1  0  0  0  0
  7  8  1  0  0  0  0
  7 30  1  0  0  0  0
  8  9  1  0  0  0  0
  8 31  1  0  0  0  0
  8 32  1  0  0  0  0
  9 10  1  0  0  0  0
  9 19  1  0  0  0  0
  9 33  1  0  0  0  0
 10 34  1  0  0  0  0
 10 11  1  0  0  0  0
 11 13  1  0  0  0  0
 11 12  2  0  0  0  0
 13 14  2  0  0  0  0
 14 18  1  0  0  0  0
 14 15  1  0  0  0  0
 15 35  1  0  0  0  0
 15 16  1  0  0  0  0
 16 36  1  0  0  0  0
 16 17  2  0  0  0  0
 17 37  1  0  0  0  0
 17 18  1  0  0  0  0
 19 38  1  0  0  0  0
 19 39  1  0  0  0  0
M  CHG  1   2   1
M  END
> <s_m_source_file>
AV-unprocessed.smi

> <i_m_source_file_index>
2226

> <i_lp_mmshare_version>
43012

> <i_f3d_flags>
0

> <s_epik_input>
W0NIMl0xW0NIMl1bQ0gyXVtDQEhdKE4oW0NIM10pW0NIXTEyKVtDSDJdW0NASF0oW0NIMl0yKVtOSF1DKD1PKVtOSF1jM25bY0hdW2NIXW8z

> <s_epik_cmdline>
J2VwaWtfcHl0aG9uJywgJy1waCcsICc3LjAnLCAnLXRuJywgJzgnLCAnLW1hJywgJzIwMCcsICctbWV0YWxfYmluZGluZycsICctaW1hZScsICc8aW5maWxlLm1hZT4nLCAnLW9tYWUnLCAnPG91dGZpbGUubWFlPic=

> <r_lp_tautomer_probability>
0.107061

> <r_epik_Ionization_Penalty>
1.08307

> <r_epik_Ionization_Penalty_Charging>
1.08272

> <r_epik_Ionization_Penalty_Neutral>
0.000345913

> <r_epik_State_Penalty>
2.5744

> <r_epik_Charging_Adjusted_Penalty>
3.65713

> <i_epik_Tot_Q>
1

> <i_epik_Tot_abs_Q>
1

> <r_epik_Metal_State_Penalty>
3.72133

> <b_epik_Metal_Only>
0

> <s_lp_Force_Field>
OPLS_2005

> <r_lp_Energy>
59.8025

> <b_lp_Chiralities_Consistent>
1

> <s_lp_Variant>
AV-unprocessed.smi:2226-13

> <Gold.Version>
5.8.1

> <Gold.Id.Protein>
6NUR|6NUR_protein|mol2

> <Gold.PLP.Fitness>
37.7122

> <Gold.PLP.PLP>
-24.3770

> <Gold.PLP.part.hbond>
-4.2149

> <Gold.PLP.part.metal>
0.0000

> <Gold.PLP.part.buried>
-3.3652

> <Gold.PLP.part.nonpolar>
-16.2762

> <Gold.PLP.part.repulsive>
0.1384

> <Gold.PLP.ligand.clash>
0.0000

> <Gold.PLP.ligand.torsion>
0.4620

> <Gold.PLP.Chemscore.Hbond>
4.7360

> <Gold.PLP.Chemscore.CHOScore>
0.0000

> <Gold.PLP.Chemscore.Metal>
0.0000

> <Gold.Chemscore.Hbonds>
donor molecule, donor type, donor heavy atom, donor atom, acceptor molecule, acceptor atom, score
      L1  H     2    40       P1  7948  2.00
      P1  H  6896  6907       L1    12  0.81
      P1  H  6931  6943       L1    18  1.00
      P1  H  6934  6947       L1    18  0.58

> <Gold.PLP.Chemscore.Internal.Correction>
0.0513

> <Gold.Rescore>
     Score         DG    S(hbond)    S(metal)    S(lipo)     H(rot)  DE(clash)    DE(int)     intcor
     17.85     -18.33       2.96        0.00      47.09       1.00       0.00       0.47       ----

> <Gold.Chemscore.Fitness>
17.8542

> <Gold.Chemscore.DG>
-18.3281

> <Gold.Chemscore.ZeroCoef>
-5.4800

> <Gold.Chemscore.Hbond>
2.9636

> <Gold.Chemscore.Metal>
0.0000

> <Gold.Chemscore.Lipo>
47.0910

> <Gold.Chemscore.Internal_Hbond>
0.0000

> <Gold.Chemscore.DEClash>
0.0038

> <Gold.Chemscore.DEInternal>
0.4700

> <Gold.Chemscore.Rot>
1.0000

> <Gold.Chemscore.Internal.Correction>
   9.000000E+99

> <Gold.Chemscore.Hbonds>
donor molecule, donor type, donor heavy atom, donor atom, acceptor molecule, acceptor atom, score
      L1  H     2    40       P1  7948  1.00
      P1  H  6896  6907       L1    12  0.68
      P1  H  6931  6943       L1    18  0.77
      P1  H  6934  6947       L1    18  0.22

> <Gold.Chemscore.Hbond.Weighted>
-9.8984

> <Gold.Chemscore.Metal.Weighted>
-0.0000

> <Gold.Chemscore.Lipo.Weighted>
-5.5097

> <Gold.Chemscore.Internal_Hbond.Weighted>
0.0000

> <Gold.Chemscore.DEClash.Weighted>
0.0038

> <Gold.Chemscore.DEInternal.Weighted>
0.4700

> <Gold.Chemscore.Rot.Weighted>
2.5600

> <Gold.Chemscore.Internal.Correction.Weighted>
   9.000000E+99

> <Gold.Protein.RotatedTorsions>
[ 6907 6896 6895 6894 ] final  -69.12 input  -60.11 | X-H torsion
[ 7974 7965 7964 7962 ] final  -53.15 input  175.53 | X-H torsion
[ 8008 7997 7996 7995 ] final    2.36 input   59.86 | X-H torsion
[ 10167 10162 10161 10158 ] final -137.73 input  -65.29 | X-H torsion
[ 10718 10713 10712 10709 ] final   81.55 input   66.30 | X-H torsion
[ 10763 10752 10751 10750 ] final  -88.56 input  -60.55 | X-H torsion
[ 11005 11000 10999 10996 ] final -170.46 input  -57.11 | X-H torsion

> <Gold.Protein.ActiveResidues>
 VAL166  LYS551  ARG553  GLY616  TRP617  ASP618  TYR619  PRO620  LYS621  CYS622 
 ASP623  PHE694  ASN695  SER759  ASP760  ASP761  ALA762  ILE779  LEU786  VAL792 
 PHE793  MET794  SER795  GLU796  ALA797  LYS798  CYS799  TRP800  GLU811  SER814 

> <Gold.Protein.RotatedAtoms>
  150.7321  134.5641  159.5856 H   0  0  0  0  0  0  0  0  0  0  0  0  # atno 6907 bound_to 6896
  152.3097  134.7509  160.0348 H   0  0  0  0  0  0  0  0  0  0  0  0  # atno 6908 bound_to 6896
  151.8061  133.3340  159.3578 H   0  0  0  0  0  0  0  0  0  0  0  0  # atno 6909 bound_to 6896
  145.9001  140.8001  142.9748 H   0  0  0  0  0  0  0  0  0  0  0  0  # atno 7974 bound_to 7965
  154.6907  140.2652  155.6815 H   0  0  0  0  0  0  0  0  0  0  0  0  # atno 8008 bound_to 7997
  156.2731  140.2792  156.1407 H   0  0  0  0  0  0  0  0  0  0  0  0  # atno 8009 bound_to 7997
  155.0901  140.0373  157.2656 H   0  0  0  0  0  0  0  0  0  0  0  0  # atno 8010 bound_to 7997
  139.8548  143.7152  152.2655 H   0  0  0  0  0  0  0  0  0  0  0  0  # atno 10167 bound_to 10162
  157.6835  131.0009  150.2242 H   0  0  0  0  0  0  0  0  0  0  0  0  # atno 10718 bound_to 10713
  154.6458  135.5373  153.7843 H   0  0  0  0  0  0  0  0  0  0  0  0  # atno 10763 bound_to 10752
  153.0358  135.6470  154.1091 H   0  0  0  0  0  0  0  0  0  0  0  0  # atno 10764 bound_to 10752
  154.1012  135.2933  155.3231 H   0  0  0  0  0  0  0  0  0  0  0  0  # atno 10765 bound_to 10752
  140.5192  134.5726  157.5043 H   0  0  0  0  0  0  0  0  0  0  0  0  # atno 11005 bound_to 11000
  144.6735  140.1663  143.7418 LP  0  0  0  0  0  0  0  0  0  0  0  0  # atno 17320 bound_to 7965
  145.8802  139.2319  143.1610 LP  0  0  0  0  0  0  0  0  0  0  0  0  # atno 17321 bound_to 7965
  139.7430  144.7554  151.0623 LP  0  0  0  0  0  0  0  0  0  0  0  0  # atno 17342 bound_to 10162
  140.7783  143.4949  150.9845 LP  0  0  0  0  0  0  0  0  0  0  0  0  # atno 17343 bound_to 10162
  156.2888  130.3743  149.7862 LP  0  0  0  0  0  0  0  0  0  0  0  0  # atno 17370 bound_to 10713
  156.5528  130.8349  151.3305 LP  0  0  0  0  0  0  0  0  0  0  0  0  # atno 17371 bound_to 10713
  139.9615  134.7444  156.0227 LP  0  0  0  0  0  0  0  0  0  0  0  0  # atno 17394 bound_to 11000
  141.1343  133.6579  156.3551 LP  0  0  0  0  0  0  0  0  0  0  0  0  # atno 17395 bound_to 11000

$$$$
