AV-unprocessed.smi:1703|AV-procd|sdf|6866|dock6
  -GOLD-   22720 8 63D 1   1.00000     0.00000
 Structure written by MMmdl.
 49 51  0  0  0  0  0  0  0  0  2 V2000
  143.8983  144.1889  161.7191 C   0  0  0  0  0  0  0  0  0  0  0  0
  145.0812  143.2115  161.5964 C   0  0  1  0  0  0  0  0  0  0  0  0
  145.1347  142.4808  160.2407 C   0  0  0  0  0  0  0  0  0  0  0  0
  145.5786  143.3976  159.1623 N   0  3  2  0  0  0  0  0  0  0  0  0
  145.5787  142.7775  157.8130 C   0  0  0  0  0  0  0  0  0  0  0  0
  146.8712  141.9869  157.5314 C   0  0  1  0  0  0  0  0  0  0  0  0
  146.6877  140.6498  157.9571 O   0  0  0  0  0  0  0  0  0  0  0  0
  147.2409  142.0087  156.0348 C   0  0  0  0  0  0  0  0  0  0  0  0
  148.5110  141.3495  155.7599 N   0  0  0  0  0  0  0  0  0  0  0  0
  148.8521  140.6055  154.6774 C   0  0  0  0  0  0  0  0  0  0  0  0
  147.8959  140.3380  153.5555 C   0  0  0  0  0  0  0  0  0  0  0  0
  148.0656  139.0565  152.9886 O   0  0  0  0  0  0  0  0  0  0  0  0
  150.0941  140.1207  154.6744 N   0  0  0  0  0  0  0  0  0  0  0  0
  150.6061  140.5882  155.8691 C   0  0  0  0  0  0  0  0  0  0  0  0
  151.8828  140.4173  156.4507 C   0  0  0  0  0  0  0  0  0  0  0  0
  152.1815  140.9980  157.7008 C   0  0  0  0  0  0  0  0  0  0  0  0
  151.2099  141.7557  158.3861 C   0  0  0  0  0  0  0  0  0  0  0  0
  149.9317  141.9383  157.8246 C   0  0  0  0  0  0  0  0  0  0  0  0
  149.6389  141.3580  156.5754 C   0  0  0  0  0  0  0  0  0  0  0  0
  146.8820  144.0065  159.5123 C   0  0  0  0  0  0  0  0  0  0  0  0
  146.7838  144.7438  160.8603 C   0  0  2  0  0  0  0  0  0  0  0  0
  148.1368  145.3112  161.3033 C   0  0  0  0  0  0  0  0  0  0  0  0
  146.3353  143.8388  161.8665 O   0  0  0  0  0  0  0  0  0  0  0  0
  142.9495  143.6584  161.6354 H   0  0  0  0  0  0  0  0  0  0  0  0
  143.9090  144.9540  160.9433 H   0  0  0  0  0  0  0  0  0  0  0  0
  143.9088  144.6921  162.6861 H   0  0  0  0  0  0  0  0  0  0  0  0
  144.9480  142.4583  162.3736 H   0  0  0  0  0  0  0  0  0  0  0  0
  145.8318  141.6435  160.3050 H   0  0  0  0  0  0  0  0  0  0  0  0
  144.1570  142.0563  160.0158 H   0  0  0  0  0  0  0  0  0  0  0  0
  144.7296  142.0983  157.7187 H   0  0  0  0  0  0  0  0  0  0  0  0
  145.4312  143.5540  157.0605 H   0  0  0  0  0  0  0  0  0  0  0  0
  147.6994  142.4063  158.1008 H   0  0  0  0  0  0  0  0  0  0  0  0
  146.1683  140.1944  157.3119 H   0  0  0  0  0  0  0  0  0  0  0  0
  146.4632  141.5227  155.4440 H   0  0  0  0  0  0  0  0  0  0  0  0
  147.2913  143.0358  155.6733 H   0  0  0  0  0  0  0  0  0  0  0  0
  146.8703  140.4456  153.9074 H   0  0  0  0  0  0  0  0  0  0  0  0
  148.0389  141.0855  152.7743 H   0  0  0  0  0  0  0  0  0  0  0  0
  148.7638  139.0985  152.3533 H   0  0  0  0  0  0  0  0  0  0  0  0
  152.6339  139.8383  155.9343 H   0  0  0  0  0  0  0  0  0  0  0  0
  153.1606  140.8614  158.1359 H   0  0  0  0  0  0  0  0  0  0  0  0
  151.4470  142.1970  159.3430 H   0  0  0  0  0  0  0  0  0  0  0  0
  149.1872  142.5192  158.3479 H   0  0  0  0  0  0  0  0  0  0  0  0
  147.6472  143.2296  159.5553 H   0  0  0  0  0  0  0  0  0  0  0  0
  147.1818  144.7101  158.7346 H   0  0  0  0  0  0  0  0  0  0  0  0
  146.0824  145.5737  160.7736 H   0  0  0  0  0  0  0  0  0  0  0  0
  148.5229  146.0220  160.5723 H   0  0  0  0  0  0  0  0  0  0  0  0
  148.8775  144.5203  161.4245 H   0  0  0  0  0  0  0  0  0  0  0  0
  148.0473  145.8324  162.2567 H   0  0  0  0  0  0  0  0  0  0  0  0
  144.9124  144.1565  159.1236 H   0  0  0  0  0  0  0  0  0  0  0  0
  1  2  1  0  0  0  0
  1 24  1  0  0  0  0
  1 25  1  0  0  0  0
  1 26  1  0  0  0  0
  2 23  1  0  0  0  0
  2  3  1  0  0  0  0
  2 27  1  0  0  0  0
  3  4  1  0  0  0  0
  3 28  1  0  0  0  0
  3 29  1  0  0  0  0
  4  5  1  0  0  0  0
  4 20  1  0  0  0  0
  4 49  1  0  0  0  0
  5  6  1  0  0  0  0
  5 30  1  0  0  0  0
  5 31  1  0  0  0  0
  6  7  1  0  0  0  0
  6  8  1  0  0  0  0
  6 32  1  0  0  0  0
  7 33  1  0  0  0  0
  8  9  1  0  0  0  0
  8 34  1  0  0  0  0
  8 35  1  0  0  0  0
  9 19  1  0  0  0  0
  9 10  1  0  0  0  0
 10 11  1  0  0  0  0
 10 13  2  0  0  0  0
 11 12  1  0  0  0  0
 11 36  1  0  0  0  0
 11 37  1  0  0  0  0
 12 38  1  0  0  0  0
 13 14  1  0  0  0  0
 14 19  2  0  0  0  0
 14 15  1  0  0  0  0
 15 16  2  0  0  0  0
 15 39  1  0  0  0  0
 16 17  1  0  0  0  0
 16 40  1  0  0  0  0
 17 18  2  0  0  0  0
 17 41  1  0  0  0  0
 18 19  1  0  0  0  0
 18 42  1  0  0  0  0
 20 21  1  0  0  0  0
 20 43  1  0  0  0  0
 20 44  1  0  0  0  0
 21 22  1  0  0  0  0
 21 23  1  0  0  0  0
 21 45  1  0  0  0  0
 22 46  1  0  0  0  0
 22 47  1  0  0  0  0
 22 48  1  0  0  0  0
M  CHG  1   4   1
M  END
> <s_m_source_file>
AV-unprocessed.smi

> <i_m_source_file_index>
1703

> <i_lp_mmshare_version>
43012

> <i_f3d_flags>
0

> <s_epik_input>
W0NIM11bQ0BASF0xW0NIMl1OKFtDSDJdW0NASF0oTzEpW0NIM10pW0NIMl1bQ0BIXShbT0hdKVtDSDJdbihjKG4yKVtDSDJdW09IXSljKGMyMylbY0hdW2NIXVtjSF1bY0hdMw==

> <s_epik_cmdline>
J2VwaWtfcHl0aG9uJywgJy1waCcsICc3LjAnLCAnLXRuJywgJzgnLCAnLW1hJywgJzIwMCcsICctbWV0YWxfYmluZGluZycsICctaW1hZScsICc8aW5maWxlLm1hZT4nLCAnLW9tYWUnLCAnPG91dGZpbGUubWFlPic=

> <r_epik_Ionization_Penalty>
0.655661

> <r_epik_Ionization_Penalty_Charging>
0.608065

> <r_epik_Ionization_Penalty_Neutral>
0.0475963

> <r_epik_State_Penalty>
0.695267

> <r_epik_Charging_Adjusted_Penalty>
1.30333

> <i_epik_Tot_Q>
1

> <i_epik_Tot_abs_Q>
1

> <r_epik_Metal_State_Penalty>
0.653591

> <b_epik_Metal_Only>
0

> <s_lp_Force_Field>
OPLS_2005

> <r_lp_Energy>
24.2834

> <b_lp_Chiralities_Consistent>
1

> <s_lp_Variant>
AV-unprocessed.smi:1703-14

> <Gold.Version>
5.8.1

> <Gold.Id.Protein>
6NUR|6NUR_protein|mol2

> <Gold.PLP.Fitness>
42.4157

> <Gold.PLP.PLP>
-38.9671

> <Gold.PLP.part.hbond>
-2.2608

> <Gold.PLP.part.metal>
0.0000

> <Gold.PLP.part.buried>
-6.1188

> <Gold.PLP.part.nonpolar>
-29.4019

> <Gold.PLP.part.repulsive>
0.2075

> <Gold.PLP.ligand.clash>
0.0000

> <Gold.PLP.ligand.torsion>
1.2945

> <Gold.PLP.Chemscore.Hbond>
2.0000

> <Gold.PLP.Chemscore.CHOScore>
0.0000

> <Gold.PLP.Chemscore.Metal>
0.0000

> <Gold.Chemscore.Hbonds>
donor molecule, donor type, donor heavy atom, donor atom, acceptor molecule, acceptor atom, score
      L1  H    12    38       P1  7957  0.96
      P1  H  7989  7998       L1    13  0.72

> <Gold.PLP.Chemscore.Internal.Correction>
0.0377

> <Gold.Rescore>
     Score         DG    S(hbond)    S(metal)    S(lipo)     H(rot)  DE(clash)    DE(int)     intcor
     10.56     -12.06       1.35        0.00      82.39       2.96       0.27       1.23       ----

> <Gold.Chemscore.Fitness>
10.5575

> <Gold.Chemscore.DG>
-12.0624

> <Gold.Chemscore.ZeroCoef>
-5.4800

> <Gold.Chemscore.Hbond>
1.3542

> <Gold.Chemscore.Metal>
0.0000

> <Gold.Chemscore.Lipo>
82.3911

> <Gold.Chemscore.Internal_Hbond>
0.0000

> <Gold.Chemscore.DEClash>
0.2725

> <Gold.Chemscore.DEInternal>
1.2325

> <Gold.Chemscore.Rot>
2.9611

> <Gold.Chemscore.Internal.Correction>
   9.000000E+99

> <Gold.Chemscore.Hbonds>
donor molecule, donor type, donor heavy atom, donor atom, acceptor molecule, acceptor atom, score
      L1  H    12    38       P1  7957  0.92
      P1  H  7989  7998       L1    13  0.10

> <Gold.Chemscore.Hbond.Weighted>
-4.5230

> <Gold.Chemscore.Metal.Weighted>
-0.0000

> <Gold.Chemscore.Lipo.Weighted>
-9.6398

> <Gold.Chemscore.Internal_Hbond.Weighted>
0.0000

> <Gold.Chemscore.DEClash.Weighted>
0.2725

> <Gold.Chemscore.DEInternal.Weighted>
1.2325

> <Gold.Chemscore.Rot.Weighted>
7.5803

> <Gold.Chemscore.Internal.Correction.Weighted>
   9.000000E+99

> <Gold.Protein.RotatedTorsions>
[ 6907 6896 6895 6894 ] final   84.65 input  -60.11 | X-H torsion
[ 7974 7965 7964 7962 ] final   71.33 input  175.53 | X-H torsion
[ 8008 7997 7996 7995 ] final -118.32 input   59.86 | X-H torsion
[ 10167 10162 10161 10158 ] final -105.95 input  -65.29 | X-H torsion
[ 10718 10713 10712 10709 ] final  -56.70 input   66.30 | X-H torsion
[ 10763 10752 10751 10750 ] final  172.37 input  -60.55 | X-H torsion
[ 11005 11000 10999 10996 ] final   23.05 input  -57.11 | X-H torsion

> <Gold.Protein.ActiveResidues>
 VAL166  LYS551  ARG553  GLY616  TRP617  ASP618  TYR619  PRO620  LYS621  CYS622 
 ASP623  PHE694  ASN695  SER759  ASP760  ASP761  ALA762  ILE779  LEU786  VAL792 
 PHE793  MET794  SER795  GLU796  ALA797  LYS798  CYS799  TRP800  GLU811  SER814 

> <Gold.Protein.RotatedAtoms>
  152.5357  134.2707  159.8970 H   0  0  0  0  0  0  0  0  0  0  0  0  # atno 6907 bound_to 6896
  151.2664  133.4270  159.2626 H   0  0  0  0  0  0  0  0  0  0  0  0  # atno 6908 bound_to 6896
  151.0406  134.9619  159.8216 H   0  0  0  0  0  0  0  0  0  0  0  0  # atno 6909 bound_to 6896
  145.7671  139.2826  143.1342 H   0  0  0  0  0  0  0  0  0  0  0  0  # atno 7974 bound_to 7965
  155.0977  140.0395  157.2687 H   0  0  0  0  0  0  0  0  0  0  0  0  # atno 8008 bound_to 7997
  154.6782  140.2627  155.6910 H   0  0  0  0  0  0  0  0  0  0  0  0  # atno 8009 bound_to 7997
  156.2685  140.2784  156.1317 H   0  0  0  0  0  0  0  0  0  0  0  0  # atno 8010 bound_to 7997
  140.1931  143.3877  152.1191 H   0  0  0  0  0  0  0  0  0  0  0  0  # atno 10167 bound_to 10162
  156.1268  130.4162  150.0341 H   0  0  0  0  0  0  0  0  0  0  0  0  # atno 10718 bound_to 10713
  154.4250  135.2758  155.1950 H   0  0  0  0  0  0  0  0  0  0  0  0  # atno 10763 bound_to 10752
  154.3880  135.6072  153.5831 H   0  0  0  0  0  0  0  0  0  0  0  0  # atno 10764 bound_to 10752
  152.9834  135.5896  154.4552 H   0  0  0  0  0  0  0  0  0  0  0  0  # atno 10765 bound_to 10752
  140.3738  134.1994  155.7666 H   0  0  0  0  0  0  0  0  0  0  0  0  # atno 11005 bound_to 11000
  146.0207  140.8351  142.9925 LP  0  0  0  0  0  0  0  0  0  0  0  0  # atno 17320 bound_to 7965
  144.6819  140.2624  143.7317 LP  0  0  0  0  0  0  0  0  0  0  0  0  # atno 17321 bound_to 7965
  139.5248  144.7088  151.5272 LP  0  0  0  0  0  0  0  0  0  0  0  0  # atno 17342 bound_to 10162
  140.6442  143.8827  150.6721 LP  0  0  0  0  0  0  0  0  0  0  0  0  # atno 17343 bound_to 10162
  156.8264  130.9377  151.3639 LP  0  0  0  0  0  0  0  0  0  0  0  0  # atno 17370 bound_to 10713
  157.6449  130.8836  149.9518 LP  0  0  0  0  0  0  0  0  0  0  0  0  # atno 17371 bound_to 10713
  141.1946  133.8125  157.0751 LP  0  0  0  0  0  0  0  0  0  0  0  0  # atno 17394 bound_to 11000
  140.0531  134.9795  157.1172 LP  0  0  0  0  0  0  0  0  0  0  0  0  # atno 17395 bound_to 11000

$$$$
