AV-unprocessed.smi:79|AV-procd|sdf|778|dock7
  -GOLD-   2262017133D 1   1.00000     0.00000
 Structure written by MMmdl.
 56 59  0  0  0  0  0  0  0  0  2 V2000
  143.7731  134.0001  150.6812 C   0  0  0  0  0  0  0  0  0  0  0  0
  143.5826  132.6174  151.3174 C   0  0  1  0  0  0  0  0  0  0  0  0
  143.1336  131.7282  150.3148 O   0  0  0  0  0  0  0  0  0  0  0  0
  144.8899  132.0732  151.9258 C   0  0  0  0  0  0  0  0  0  0  0  0
  145.1608  132.6315  153.2749 N   0  3  2  0  0  0  0  0  0  0  0  0
  145.2460  134.1159  153.2948 C   0  0  0  0  0  0  0  0  0  0  0  0
  145.4237  134.6407  154.7295 C   0  0  0  0  0  0  0  0  0  0  0  0
  146.5662  133.9980  155.3750 N   0  0  0  0  0  0  0  0  0  0  0  0
  147.7472  134.6566  155.2443 C   0  0  0  0  0  0  0  0  0  0  0  0
  148.7750  134.0857  154.5613 N   0  0  0  0  0  0  0  0  0  0  0  0
  149.9325  134.7365  154.4156 C   0  0  0  0  0  0  0  0  0  0  0  0
  150.2720  135.9448  154.8674 N   0  0  0  0  0  0  0  0  0  0  0  0
  149.2501  136.5201  155.5634 C   0  0  0  0  0  0  0  0  0  0  0  0
  147.9654  135.9518  155.7926 C   0  0  0  0  0  0  0  0  0  0  0  0
  147.1870  136.8278  156.5387 N   0  0  0  0  0  0  0  0  0  0  0  0
  147.9646  137.8574  156.7342 C   0  0  0  0  0  0  0  0  0  0  0  0
  149.2283  137.7515  156.1975 N   0  0  0  0  0  0  0  0  0  0  0  0
  150.2918  138.7437  156.2680 C   0  0  0  0  0  0  0  0  0  0  0  0
  150.5636  139.4814  154.9385 C   0  0  0  0  0  0  0  0  0  0  0  0
  149.2560  139.6860  154.1555 C   0  0  0  0  0  0  0  0  0  0  0  0
  149.3559  140.7826  153.2703 O   0  0  0  0  0  0  0  0  0  0  0  0
  151.4581  140.7226  155.0610 C   0  0  0  0  0  0  0  0  0  0  0  0
  152.5842  140.0572  154.4517 O   0  0  0  0  0  0  0  0  0  0  0  0
  151.7371  138.9410  154.1074 C   0  0  0  0  0  0  0  0  0  0  0  0
  146.5594  132.5313  155.3592 C   0  0  1  0  0  0  0  0  0  0  0  0
  145.5196  131.9668  156.3428 C   0  0  0  0  0  0  0  0  0  0  0  0
  146.3386  131.9986  153.9247 C   0  0  0  0  0  0  0  0  0  0  0  0
  144.1007  134.7294  151.4226 H   0  0  0  0  0  0  0  0  0  0  0  0
  142.8403  134.3672  150.2514 H   0  0  0  0  0  0  0  0  0  0  0  0
  144.5199  133.9761  149.8868 H   0  0  0  0  0  0  0  0  0  0  0  0
  142.8059  132.6945  152.0774 H   0  0  0  0  0  0  0  0  0  0  0  0
  142.2202  131.5364  150.4648 H   0  0  0  0  0  0  0  0  0  0  0  0
  144.8186  130.9856  151.9818 H   0  0  0  0  0  0  0  0  0  0  0  0
  145.7372  132.2867  151.2722 H   0  0  0  0  0  0  0  0  0  0  0  0
  146.0850  134.4381  152.6758 H   0  0  0  0  0  0  0  0  0  0  0  0
  144.3492  134.5589  152.8642 H   0  0  0  0  0  0  0  0  0  0  0  0
  145.5303  135.7251  154.7070 H   0  0  0  0  0  0  0  0  0  0  0  0
  144.5272  134.4390  155.3158 H   0  0  0  0  0  0  0  0  0  0  0  0
  150.6965  134.2151  153.8577 H   0  0  0  0  0  0  0  0  0  0  0  0
  147.6306  138.7281  157.2792 H   0  0  0  0  0  0  0  0  0  0  0  0
  150.0492  139.4524  157.0605 H   0  0  0  0  0  0  0  0  0  0  0  0
  151.1945  138.2325  156.6056 H   0  0  0  0  0  0  0  0  0  0  0  0
  149.0212  138.8026  153.5609 H   0  0  0  0  0  0  0  0  0  0  0  0
  148.4051  139.8349  154.8200 H   0  0  0  0  0  0  0  0  0  0  0  0
  148.8140  140.6101  152.5155 H   0  0  0  0  0  0  0  0  0  0  0  0
  151.1208  141.5738  154.4677 H   0  0  0  0  0  0  0  0  0  0  0  0
  151.6594  141.0236  156.0897 H   0  0  0  0  0  0  0  0  0  0  0  0
  152.1461  137.9948  154.4588 H   0  0  0  0  0  0  0  0  0  0  0  0
  151.5396  138.8991  153.0351 H   0  0  0  0  0  0  0  0  0  0  0  0
  147.5273  132.1695  155.7092 H   0  0  0  0  0  0  0  0  0  0  0  0
  145.5762  130.8789  156.3873 H   0  0  0  0  0  0  0  0  0  0  0  0
  144.5003  132.2306  156.0603 H   0  0  0  0  0  0  0  0  0  0  0  0
  145.6927  132.3437  157.3513 H   0  0  0  0  0  0  0  0  0  0  0  0
  146.2140  130.9152  153.9510 H   0  0  0  0  0  0  0  0  0  0  0  0
  147.2206  132.1928  153.3131 H   0  0  0  0  0  0  0  0  0  0  0  0
  144.3656  132.3798  153.8449 H   0  0  0  0  0  0  0  0  0  0  0  0
  1  2  1  0  0  0  0
  1 28  1  0  0  0  0
  1 29  1  0  0  0  0
  1 30  1  0  0  0  0
  2  3  1  0  0  0  0
  2  4  1  0  0  0  0
  2 31  1  0  0  0  0
  3 32  1  0  0  0  0
  4  5  1  0  0  0  0
  4 33  1  0  0  0  0
  4 34  1  0  0  0  0
  5 27  1  0  0  0  0
  5  6  1  0  0  0  0
  5 56  1  0  0  0  0
  6  7  1  0  0  0  0
  6 35  1  0  0  0  0
  6 36  1  0  0  0  0
  7  8  1  0  0  0  0
  7 37  1  0  0  0  0
  7 38  1  0  0  0  0
  8  9  1  0  0  0  0
  8 25  1  0  0  0  0
  9 14  1  0  0  0  0
  9 10  2  0  0  0  0
 10 11  1  0  0  0  0
 11 12  2  0  0  0  0
 11 39  1  0  0  0  0
 12 13  1  0  0  0  0
 13 17  1  0  0  0  0
 13 14  2  0  0  0  0
 14 15  1  0  0  0  0
 15 16  2  0  0  0  0
 16 17  1  0  0  0  0
 16 40  1  0  0  0  0
 17 18  1  0  0  0  0
 18 19  1  0  0  0  0
 18 41  1  0  0  0  0
 18 42  1  0  0  0  0
 19 24  1  0  0  0  0
 19 20  1  0  0  0  0
 19 22  1  0  0  0  0
 20 21  1  0  0  0  0
 20 43  1  0  0  0  0
 20 44  1  0  0  0  0
 21 45  1  0  0  0  0
 22 23  1  0  0  0  0
 22 46  1  0  0  0  0
 22 47  1  0  0  0  0
 23 24  1  0  0  0  0
 24 48  1  0  0  0  0
 24 49  1  0  0  0  0
 25 26  1  0  0  0  0
 25 27  1  0  0  0  0
 25 50  1  0  0  0  0
 26 51  1  0  0  0  0
 26 52  1  0  0  0  0
 26 53  1  0  0  0  0
 27 54  1  0  0  0  0
 27 55  1  0  0  0  0
M  CHG  1   5   1
M  END
> <s_m_source_file>
AV-unprocessed.smi

> <i_m_source_file_index>
79

> <i_lp_mmshare_version>
43012

> <i_f3d_flags>
0

> <s_epik_input>
W0NIM11bQ0BIXShbT0hdKVtDSDJdTjFbQ0gyXVtDSDJdTihbQ0BASF0oW0NIM10pW0NIMl0xKWMobltjSF1uMiljKGMyMyluW2NIXW4zW0NIMl1DNChbQ0gyXVtPSF0pW0NIMl1PW0NIMl00

> <s_epik_cmdline>
J2VwaWtfcHl0aG9uJywgJy1waCcsICc3LjAnLCAnLXRuJywgJzgnLCAnLW1hJywgJzIwMCcsICctbWV0YWxfYmluZGluZycsICctaW1hZScsICc8aW5maWxlLm1hZT4nLCAnLW9tYWUnLCAnPG91dGZpbGUubWFlPic=

> <r_lp_tautomer_probability>
1

> <r_epik_Ionization_Penalty>
0.00515943

> <r_epik_Ionization_Penalty_Charging>
0.00509693

> <r_epik_Ionization_Penalty_Neutral>
6.25007e-05

> <r_epik_State_Penalty>
-0

> <r_epik_Charging_Adjusted_Penalty>
0.00509693

> <i_epik_Tot_Q>
1

> <i_epik_Tot_abs_Q>
1

> <r_epik_Metal_State_Penalty>
-0

> <b_epik_Metal_Only>
0

> <s_lp_Force_Field>
OPLS_2005

> <r_lp_Energy>
48.7837

> <b_lp_Chiralities_Consistent>
1

> <s_lp_Variant>
AV-unprocessed.smi:79-2

> <Gold.Version>
5.8.1

> <Gold.Id.Protein>
6NUR|6NUR_protein|mol2

> <Gold.PLP.Fitness>
43.0862

> <Gold.PLP.PLP>
-30.4573

> <Gold.PLP.part.hbond>
-6.3999

> <Gold.PLP.part.metal>
0.0000

> <Gold.PLP.part.buried>
-5.5478

> <Gold.PLP.part.nonpolar>
-21.0129

> <Gold.PLP.part.repulsive>
0.2311

> <Gold.PLP.ligand.clash>
0.0000

> <Gold.PLP.ligand.torsion>
1.6062

> <Gold.PLP.Chemscore.Hbond>
4.9673

> <Gold.PLP.Chemscore.CHOScore>
0.0000

> <Gold.PLP.Chemscore.Metal>
0.0000

> <Gold.Chemscore.Hbonds>
donor molecule, donor type, donor heavy atom, donor atom, acceptor molecule, acceptor atom, score
      L1  H     3    32       P1 10952  0.71
      L1  H     5    56       P1 10957  2.00
      L1  H    21    45       P1  7957  0.34
      P1  H  7989  7998       L1    21  0.08
      P1  H  7997  8010       L1    23  0.11
      P1  H  8011  8017       L1    21  0.20
      P1  H 10785 10796       L1     3  0.25

> <Gold.PLP.Chemscore.Internal.Correction>
0.9395

> <Gold.Rescore>
     Score         DG    S(hbond)    S(metal)    S(lipo)     H(rot)  DE(clash)    DE(int)     intcor
     12.29     -13.86       3.08        0.00      65.30       3.72       0.02       1.55       ----

> <Gold.Chemscore.Fitness>
12.2916

> <Gold.Chemscore.DG>
-13.8642

> <Gold.Chemscore.ZeroCoef>
-5.4800

> <Gold.Chemscore.Hbond>
3.0759

> <Gold.Chemscore.Metal>
0.0000

> <Gold.Chemscore.Lipo>
65.3045

> <Gold.Chemscore.Internal_Hbond>
0.0000

> <Gold.Chemscore.DEClash>
0.0204

> <Gold.Chemscore.DEInternal>
1.5522

> <Gold.Chemscore.Rot>
3.7226

> <Gold.Chemscore.Internal.Correction>
   9.000000E+99

> <Gold.Chemscore.Hbonds>
donor molecule, donor type, donor heavy atom, donor atom, acceptor molecule, acceptor atom, score
      L1  H     3    32       P1 10952  0.26
      L1  H     5    56       P1 10957  0.28
      L1  H    21    45       P1  7957  0.34
      P1  H  7989  7998       L1    21  0.01
      P1  H  7997  8010       L1    23  0.09
      P1  H 10785 10796       L1     3  0.01

> <Gold.Chemscore.Hbond.Weighted>
-10.2734

> <Gold.Chemscore.Metal.Weighted>
-0.0000

> <Gold.Chemscore.Lipo.Weighted>
-7.6406

> <Gold.Chemscore.Internal_Hbond.Weighted>
0.0000

> <Gold.Chemscore.DEClash.Weighted>
0.0204

> <Gold.Chemscore.DEInternal.Weighted>
1.5522

> <Gold.Chemscore.Rot.Weighted>
9.5298

> <Gold.Chemscore.Internal.Correction.Weighted>
   9.000000E+99

> <Gold.Protein.RotatedTorsions>
[ 6907 6896 6895 6894 ] final   88.91 input  -60.11 | X-H torsion
[ 7974 7965 7964 7962 ] final  151.87 input  175.53 | X-H torsion
[ 8008 7997 7996 7995 ] final   96.73 input   59.86 | X-H torsion
[ 10167 10162 10161 10158 ] final -110.71 input  -65.29 | X-H torsion
[ 10718 10713 10712 10709 ] final  122.34 input   66.30 | X-H torsion
[ 10763 10752 10751 10750 ] final  -74.22 input  -60.55 | X-H torsion
[ 11005 11000 10999 10996 ] final  -77.36 input  -57.11 | X-H torsion

> <Gold.Protein.ActiveResidues>
 VAL166  LYS551  ARG553  GLY616  TRP617  ASP618  TYR619  PRO620  LYS621  CYS622 
 ASP623  PHE694  ASN695  SER759  ASP760  ASP761  ALA762  ILE779  LEU786  VAL792 
 PHE793  MET794  SER795  GLU796  ALA797  LYS798  CYS799  TRP800  GLU811  SER814 

> <Gold.Protein.RotatedAtoms>
  152.5430  134.2048  159.8726 H   0  0  0  0  0  0  0  0  0  0  0  0  # atno 6907 bound_to 6896
  151.2035  133.4590  159.2604 H   0  0  0  0  0  0  0  0  0  0  0  0  # atno 6908 bound_to 6896
  151.0966  134.9960  159.8484 H   0  0  0  0  0  0  0  0  0  0  0  0  # atno 6909 bound_to 6896
  144.8262  139.6595  143.6079 H   0  0  0  0  0  0  0  0  0  0  0  0  # atno 7974 bound_to 7965
  156.0827  140.3268  155.7714 H   0  0  0  0  0  0  0  0  0  0  0  0  # atno 8008 bound_to 7997
  155.5126  140.0578  157.2938 H   0  0  0  0  0  0  0  0  0  0  0  0  # atno 8009 bound_to 7997
  154.4591  140.1958  156.0311 H   0  0  0  0  0  0  0  0  0  0  0  0  # atno 8010 bound_to 7997
  140.1415  143.4275  152.1559 H   0  0  0  0  0  0  0  0  0  0  0  0  # atno 10167 bound_to 10162
  157.5750  131.1080  150.8297 H   0  0  0  0  0  0  0  0  0  0  0  0  # atno 10718 bound_to 10713
  154.4702  135.5871  153.6316 H   0  0  0  0  0  0  0  0  0  0  0  0  # atno 10763 bound_to 10752
  152.9833  135.6065  154.3376 H   0  0  0  0  0  0  0  0  0  0  0  0  # atno 10764 bound_to 10752
  154.3257  135.2843  155.2476 H   0  0  0  0  0  0  0  0  0  0  0  0  # atno 10765 bound_to 10752
  141.1660  133.7019  156.7808 H   0  0  0  0  0  0  0  0  0  0  0  0  # atno 11005 bound_to 11000
  146.2567  139.6317  142.9390 LP  0  0  0  0  0  0  0  0  0  0  0  0  # atno 17320 bound_to 7965
  145.4996  141.0438  143.2548 LP  0  0  0  0  0  0  0  0  0  0  0  0  # atno 17321 bound_to 7965
  139.5470  144.7306  151.4553 LP  0  0  0  0  0  0  0  0  0  0  0  0  # atno 17342 bound_to 10162
  140.6758  143.8193  150.7056 LP  0  0  0  0  0  0  0  0  0  0  0  0  # atno 17343 bound_to 10162
  156.8758  130.5162  149.5294 LP  0  0  0  0  0  0  0  0  0  0  0  0  # atno 17370 bound_to 10713
  156.0794  130.5808  150.9535 LP  0  0  0  0  0  0  0  0  0  0  0  0  # atno 17371 bound_to 10713
  140.2396  134.8624  157.3560 LP  0  0  0  0  0  0  0  0  0  0  0  0  # atno 17394 bound_to 11000
  140.1809  134.4490  155.7772 LP  0  0  0  0  0  0  0  0  0  0  0  0  # atno 17395 bound_to 11000

$$$$
