#       Name:                AV-unprocessed.smi:2736
#       Creating user name   scv26
#       Creation time:       Fri Mar 27 14:59:42 2020


#       File generated by GOLD software.
#

@<TRIPOS>MOLECULE
AV-unprocessed.smi:2736
    45    47     1
SMALL
NO_CHARGES


@<TRIPOS>ATOM
      1 ****        -2.3942   3.7817   0.6492 C.3            1 S1                 0.0000
      2 ****        -2.4933   2.3102   0.6397 N.am           1 S1                 0.0000
      3 ****        -1.3327   1.5820   0.6191 C.2            1 S1                 0.0000
      4 ****        -0.2003   2.0658   0.6066 O.2            1 S1                 0.0000
      5 ****        -1.5423   0.1296   0.6090 C.2            1 S1                 0.0000
      6 ****        -2.7736  -0.4385   0.6135 C.2            1 S1                 0.0000
      7 ****        -2.6891  -1.8263   0.5925 N.2            1 S1                 0.0000
      8 ****        -1.3712  -2.0259   0.5744 C.2            1 S1                 0.0000
      9 ****        -0.6135  -0.9107   0.5818 N.pl3          1 S1                 0.0000
     10 ****         0.8411  -0.8690   0.5597 C.3            1 S1                 0.0000
     11 ****         1.4164  -0.9688  -0.8676 C.3            1 S1                 0.0000
     12 ****         0.9211   0.0895  -1.6668 O.3            1 S1                 0.0000
     13 ****         2.9421  -1.0280  -0.8432 C.ar           1 S1                 0.0000
     14 ****         3.6956   0.1666  -0.9215 C.ar           1 S1                 0.0000
     15 ****         5.1027   0.1306  -0.8973 C.ar           1 S1                 0.0000
     16 ****         5.7727  -1.1009  -0.7879 C.ar           1 S1                 0.0000
     17 ****         5.0336  -2.2945  -0.6964 C.ar           1 S1                 0.0000
     18 ****         3.6247  -2.2649  -0.7190 C.ar           1 S1                 0.0000
     19 ****         2.7686  -3.7612  -0.5800 Cl             1 S1                 0.0000
     20 ****        -3.9101   0.4109   0.6317 N.am           1 S1                 0.0000
     21 ****        -5.2483  -0.1870   0.6305 C.3            1 S1                 0.0000
     22 ****        -3.7703   1.7762   0.6394 C.2            1 S1                 0.0000
     23 ****        -4.7672   2.5043   0.6437 O.2            1 S1                 0.0000
     24 ****        -1.3811   4.1719   0.7512 H              1 S1                 0.0000
     25 ****        -2.9648   4.2021   1.4790 H              1 S1                 0.0000
     26 ****        -2.7990   4.1914  -0.2776 H              1 S1                 0.0000
     27 ****        -0.9414  -3.0166   0.5518 H              1 S1                 0.0000
     28 ****         1.1921   0.0311   1.0628 H              1 S1                 0.0000
     29 ****         1.2045  -1.7037   1.1606 H              1 S1                 0.0000
     30 ****         1.0379  -1.8764  -1.3370 H              1 S1                 0.0000
     31 ****         1.2053  -0.0494  -2.5574 H              1 S1                 0.0000
     32 ****         3.1994   1.1230  -0.9980 H              1 S1                 0.0000
     33 ****         5.6677   1.0490  -0.9611 H              1 S1                 0.0000
     34 ****         6.8522  -1.1300  -0.7687 H              1 S1                 0.0000
     35 ****         5.5517  -3.2378  -0.6047 H              1 S1                 0.0000
     36 ****        -5.8213   0.1497   1.4955 H              1 S1                 0.0000
     37 ****        -5.2247  -1.2760   0.6646 H              1 S1                 0.0000
     38 ****        -5.7920   0.0981  -0.2713 H              1 S1                 0.0000
     39 ****        -0.0806   3.0587   0.6113 LP             1 S1                 0.0000
     40 ****         0.5996   1.4659   0.5918 LP             1 S1                 0.0000
     41 ****        -3.4271  -2.5010   0.5913 LP             1 S1                 0.0000
     42 ****         1.2776   0.9614  -1.3310 LP             1 S1                 0.0000
     43 ****        -0.0781   0.1015  -1.6295 LP             1 S1                 0.0000
     44 ****        -4.6602   3.4986   0.6475 LP             1 S1                 0.0000
     45 ****        -5.6817   2.0999   0.6434 LP             1 S1                 0.0000
@<TRIPOS>BOND
    1    1    2 1     
    2    1   24 1     
    3    1   25 1     
    4    1   26 1     
    5    2   22 am    
    6    2    3 am    
    7    3    4 2     
    8    3    5 1     
    9    5    9 1     
   10    5    6 2     
   11    6    7 1     
   12    6   20 1     
   13    7    8 2     
   14    8    9 1     
   15    8   27 1     
   16    9   10 1     
   17   10   11 1     
   18   10   28 1     
   19   10   29 1     
   20   11   12 1     
   21   11   13 1     
   22   11   30 1     
   23   12   31 1     
   24   13   18 ar    
   25   13   14 ar    
   26   14   15 ar    
   27   14   32 1     
   28   15   16 ar    
   29   15   33 1     
   30   16   17 ar    
   31   16   34 1     
   32   17   18 ar    
   33   17   35 1     
   34   18   19 1     
   35   20   21 1     
   36   20   22 am    
   37   21   36 1     
   38   21   37 1     
   39   21   38 1     
   40   22   23 2     
   41    4   39 1     
   42    4   40 1     
   43    7   41 1     
   44   12   42 1     
   45   12   43 1     
   46   23   44 1     
   47   23   45 1     
@<TRIPOS>SUBSTRUCTURE
      1 S1             1
@<TRIPOS>SET
LONE_PAIRS      STATIC     ATOMS    <user>   **** ""
7 39 40 41 42 43 44 45
DONOR_HYDROGENS      STATIC     ATOMS    <user>   **** ""
1 31
ATOM$BLUE        STATIC     ATOMS    COLORGROUP SYSTEM
7 39 40 41 42 43 44 45
ATOM$RED        STATIC     ATOMS    COLORGROUP SYSTEM
1 31
