AV-unprocessed.smi:240|AV-procd|sdf|1824|dock6
  -GOLD-   2262020423D 1   1.00000     0.00000
 Structure written by MMmdl.
 55 59  0  0  0  0  0  0  0  0  1 V2000
  148.8398  142.2065  156.5853 O   0  0  0  0  0  0  0  0  0  0  0  0
  148.7419  141.6697  155.2821 C   0  0  2  0  0  0  0  0  0  0  0  0
  147.3626  141.9269  154.6723 C   0  0  0  0  0  0  0  0  0  0  0  0
  147.1828  140.8311  153.6130 C   0  0  0  0  0  0  0  0  0  0  0  0
  148.2124  139.7361  153.9371 C   0  0  0  0  0  0  0  0  0  0  0  0
  148.8550  140.1401  155.2752 C   0  0  1  0  0  0  0  0  0  0  0  0
  150.2719  139.5549  155.5630 C   0  0  2  0  0  0  0  0  0  0  0  0
  151.3985  140.1958  154.7128 C   0  0  0  0  0  0  0  0  0  0  0  0
  152.6576  139.6259  155.0521 O   0  0  0  0  0  0  0  0  0  0  0  0
  152.6973  138.2308  154.7847 C   0  0  0  0  0  0  0  0  0  0  0  0
  151.6470  137.5272  155.6538 C   0  0  0  0  0  0  0  0  0  0  0  0
  150.3254  138.0937  155.4111 N   0  0  0  0  0  0  0  0  0  0  0  0
  149.3734  137.3746  156.0477 C   0  0  0  0  0  0  0  0  0  0  0  0
  148.3820  136.8547  155.2834 N   0  0  0  0  0  0  0  0  0  0  0  0
  147.3994  136.1502  155.8525 C   0  0  0  0  0  0  0  0  0  0  0  0
  147.2241  135.8524  157.1419 N   0  0  0  0  0  0  0  0  0  0  0  0
  148.2269  136.3650  157.9115 C   0  0  0  0  0  0  0  0  0  0  0  0
  149.3366  137.1270  157.4496 C   0  0  0  0  0  0  0  0  0  0  0  0
  150.1553  137.4675  158.5195 N   0  0  0  0  0  0  0  0  0  0  0  0
  149.5589  136.9448  159.5557 C   0  0  0  0  0  0  0  0  0  0  0  0
  148.3884  136.2735  159.2830 N   0  0  0  0  0  0  0  0  0  0  0  0
  147.5221  135.6095  160.2448 C   0  0  0  0  0  0  0  0  0  0  0  0
  146.8068  136.5910  161.2021 C   0  0  1  0  0  0  0  0  0  0  0  0
  147.7815  137.2859  161.9613 O   0  0  0  0  0  0  0  0  0  0  0  0
  145.9197  137.6150  160.4995 C   0  0  0  0  0  0  0  0  0  0  0  0
  144.8073  137.8514  161.5112 C   0  0  0  0  0  0  0  0  0  0  0  0
  144.5792  136.5509  162.0266 O   0  0  0  0  0  0  0  0  0  0  0  0
  145.8354  135.8969  162.1778 C   0  0  0  0  0  0  0  0  0  0  0  0
  148.9176  143.1460  156.5191 H   0  0  0  0  0  0  0  0  0  0  0  0
  149.4974  142.1266  154.6436 H   0  0  0  0  0  0  0  0  0  0  0  0
  146.5896  141.8149  155.4346 H   0  0  0  0  0  0  0  0  0  0  0  0
  147.2703  142.9309  154.2568 H   0  0  0  0  0  0  0  0  0  0  0  0
  146.1647  140.4407  153.6279 H   0  0  0  0  0  0  0  0  0  0  0  0
  147.3641  141.2291  152.6140 H   0  0  0  0  0  0  0  0  0  0  0  0
  147.7502  138.7502  153.9950 H   0  0  0  0  0  0  0  0  0  0  0  0
  148.9501  139.6961  153.1371 H   0  0  0  0  0  0  0  0  0  0  0  0
  148.1763  139.7953  156.0568 H   0  0  0  0  0  0  0  0  0  0  0  0
  150.5096  139.7803  156.6028 H   0  0  0  0  0  0  0  0  0  0  0  0
  151.2253  140.0705  153.6441 H   0  0  0  0  0  0  0  0  0  0  0  0
  151.4683  141.2660  154.9013 H   0  0  0  0  0  0  0  0  0  0  0  0
  152.5204  138.0417  153.7246 H   0  0  0  0  0  0  0  0  0  0  0  0
  153.6927  137.8517  155.0164 H   0  0  0  0  0  0  0  0  0  0  0  0
  151.6432  136.4586  155.4332 H   0  0  0  0  0  0  0  0  0  0  0  0
  151.9048  137.6376  156.7082 H   0  0  0  0  0  0  0  0  0  0  0  0
  146.6437  135.7742  155.1787 H   0  0  0  0  0  0  0  0  0  0  0  0
  149.9550  137.0413  160.5563 H   0  0  0  0  0  0  0  0  0  0  0  0
  146.7870  135.0223  159.6929 H   0  0  0  0  0  0  0  0  0  0  0  0
  148.1207  134.8949  160.8112 H   0  0  0  0  0  0  0  0  0  0  0  0
  147.5350  137.2457  162.8729 H   0  0  0  0  0  0  0  0  0  0  0  0
  146.4417  138.5278  160.2087 H   0  0  0  0  0  0  0  0  0  0  0  0
  145.4832  137.1811  159.5991 H   0  0  0  0  0  0  0  0  0  0  0  0
  145.1367  138.5150  162.3123 H   0  0  0  0  0  0  0  0  0  0  0  0
  143.9075  138.2702  161.0600 H   0  0  0  0  0  0  0  0  0  0  0  0
  145.7125  134.8359  161.9578 H   0  0  0  0  0  0  0  0  0  0  0  0
  146.1664  135.9773  163.2146 H   0  0  0  0  0  0  0  0  0  0  0  0
  1  2  1  0  0  0  0
  1 29  1  0  0  0  0
  2  6  1  0  0  0  0
  2  3  1  0  0  0  0
  2 30  1  0  0  0  0
  3  4  1  0  0  0  0
  3 31  1  0  0  0  0
  3 32  1  0  0  0  0
  4  5  1  0  0  0  0
  4 33  1  0  0  0  0
  4 34  1  0  0  0  0
  5  6  1  0  0  0  0
  5 35  1  0  0  0  0
  5 36  1  0  0  0  0
  6  7  1  0  0  0  0
  6 37  1  0  0  0  0
  7 12  1  0  0  0  0
  7  8  1  0  0  0  0
  7 38  1  0  0  0  0
  8  9  1  0  0  0  0
  8 39  1  0  0  0  0
  8 40  1  0  0  0  0
  9 10  1  0  0  0  0
 10 11  1  0  0  0  0
 10 41  1  0  0  0  0
 10 42  1  0  0  0  0
 11 12  1  0  0  0  0
 11 43  1  0  0  0  0
 11 44  1  0  0  0  0
 12 13  1  0  0  0  0
 13 18  1  0  0  0  0
 13 14  2  0  0  0  0
 14 15  1  0  0  0  0
 15 16  2  0  0  0  0
 15 45  1  0  0  0  0
 16 17  1  0  0  0  0
 17 21  1  0  0  0  0
 17 18  2  0  0  0  0
 18 19  1  0  0  0  0
 19 20  2  0  0  0  0
 20 21  1  0  0  0  0
 20 46  1  0  0  0  0
 21 22  1  0  0  0  0
 22 23  1  0  0  0  0
 22 47  1  0  0  0  0
 22 48  1  0  0  0  0
 23 28  1  0  0  0  0
 23 24  1  0  0  0  0
 23 25  1  0  0  0  0
 24 49  1  0  0  0  0
 25 26  1  0  0  0  0
 25 50  1  0  0  0  0
 25 51  1  0  0  0  0
 26 27  1  0  0  0  0
 26 52  1  0  0  0  0
 26 53  1  0  0  0  0
 27 28  1  0  0  0  0
 28 54  1  0  0  0  0
 28 55  1  0  0  0  0
M  END
> <s_m_source_file>
AV-unprocessed.smi

> <i_m_source_file_index>
240

> <i_lp_mmshare_version>
43012

> <i_f3d_flags>
0

> <s_epik_input>
W09IXVtDQEBIXTFbQ0gyXVtDSDJdW0NIMl1bQ0BIXTFbQ0BASF0yW0NIMl1PW0NIMl1bQ0gyXU4yYyhuW2NIXW4zKWMoYzM0KW5bY0hdbjRbQ0gyXVtDQEBdNShbT0hdKVtDSDJdW0NIMl1PW0NIMl01

> <s_epik_cmdline>
J2VwaWtfcHl0aG9uJywgJy1waCcsICc3LjAnLCAnLXRuJywgJzgnLCAnLW1hJywgJzIwMCcsICctbWV0YWxfYmluZGluZycsICctaW1hZScsICc8aW5maWxlLm1hZT4nLCAnLW9tYWUnLCAnPG91dGZpbGUubWFlPic=

> <r_lp_tautomer_probability>
1

> <r_epik_Ionization_Penalty>
0.000130618

> <r_epik_Ionization_Penalty_Charging>
0

> <r_epik_Ionization_Penalty_Neutral>
0.000130618

> <r_epik_State_Penalty>
-0

> <r_epik_Charging_Adjusted_Penalty>
0

> <i_epik_Tot_Q>
0

> <i_epik_Tot_abs_Q>
0

> <r_epik_Metal_State_Penalty>
-0

> <b_epik_Metal_Only>
0

> <s_lp_Force_Field>
OPLS_2005

> <r_lp_Energy>
60.7436

> <b_lp_Chiralities_Consistent>
1

> <s_lp_Variant>
AV-unprocessed.smi:240-1

> <Gold.Version>
5.8.1

> <Gold.Id.Protein>
6NUR|6NUR_protein|mol2

> <Gold.PLP.Fitness>
40.0002

> <Gold.PLP.PLP>
-29.3597

> <Gold.PLP.part.hbond>
-4.9779

> <Gold.PLP.part.metal>
0.0000

> <Gold.PLP.part.buried>
0.8645

> <Gold.PLP.part.nonpolar>
-25.4739

> <Gold.PLP.part.repulsive>
0.1845

> <Gold.PLP.ligand.clash>
0.0000

> <Gold.PLP.ligand.torsion>
0.3447

> <Gold.PLP.Chemscore.Hbond>
3.7120

> <Gold.PLP.Chemscore.CHOScore>
0.0000

> <Gold.PLP.Chemscore.Metal>
0.0000

> <Gold.Chemscore.Hbonds>
donor molecule, donor type, donor heavy atom, donor atom, acceptor molecule, acceptor atom, score
      L1  H     1    29       P1  8028  1.00
      P1  H  6931  6943       L1    24  0.99
      P1  H  6934  6947       L1    24  0.19
      P1  H  7997  8009       L1     9  0.94

> <Gold.PLP.Chemscore.Internal.Correction>
0.1939

> <Gold.Rescore>
     Score         DG    S(hbond)    S(metal)    S(lipo)     H(rot)  DE(clash)    DE(int)     intcor
     13.26     -15.38       2.82        0.00      69.75       3.00       1.60       0.53       ----

> <Gold.Chemscore.Fitness>
13.2590

> <Gold.Chemscore.DG>
-15.3841

> <Gold.Chemscore.ZeroCoef>
-5.4800

> <Gold.Chemscore.Hbond>
2.8244

> <Gold.Chemscore.Metal>
0.0000

> <Gold.Chemscore.Lipo>
69.7470

> <Gold.Chemscore.Internal_Hbond>
0.0000

> <Gold.Chemscore.DEClash>
1.5978

> <Gold.Chemscore.DEInternal>
0.5272

> <Gold.Chemscore.Rot>
3.0039

> <Gold.Chemscore.Internal.Correction>
   9.000000E+99

> <Gold.Chemscore.Hbonds>
donor molecule, donor type, donor heavy atom, donor atom, acceptor molecule, acceptor atom, score
      L1  H     1    29       P1  8028  0.95
      P1  H  6931  6943       L1    24  0.46
      P1  H  7997  8009       L1     9  0.63

> <Gold.Chemscore.Hbond.Weighted>
-9.4336

> <Gold.Chemscore.Metal.Weighted>
-0.0000

> <Gold.Chemscore.Lipo.Weighted>
-8.1604

> <Gold.Chemscore.Internal_Hbond.Weighted>
0.0000

> <Gold.Chemscore.DEClash.Weighted>
1.5978

> <Gold.Chemscore.DEInternal.Weighted>
0.5272

> <Gold.Chemscore.Rot.Weighted>
7.6899

> <Gold.Chemscore.Internal.Correction.Weighted>
   9.000000E+99

> <Gold.Protein.RotatedTorsions>
[ 6907 6896 6895 6894 ] final  -82.39 input  -60.11 | X-H torsion
[ 7974 7965 7964 7962 ] final  144.96 input  175.53 | X-H torsion
[ 8008 7997 7996 7995 ] final -139.80 input   59.86 | X-H torsion
[ 10167 10162 10161 10158 ] final  120.20 input  -65.29 | X-H torsion
[ 10718 10713 10712 10709 ] final  171.69 input   66.30 | X-H torsion
[ 10763 10752 10751 10750 ] final  -16.04 input  -60.55 | X-H torsion
[ 11005 11000 10999 10996 ] final -124.79 input  -57.11 | X-H torsion

> <Gold.Protein.ActiveResidues>
 VAL166  LYS551  ARG553  GLY616  TRP617  ASP618  TYR619  PRO620  LYS621  CYS622 
 ASP623  PHE694  ASN695  SER759  ASP760  ASP761  ALA762  ILE779  LEU786  VAL792 
 PHE793  MET794  SER795  GLU796  ALA797  LYS798  CYS799  TRP800  GLU811  SER814 

> <Gold.Protein.RotatedAtoms>
  150.6898  134.3671  159.4975 H   0  0  0  0  0  0  0  0  0  0  0  0  # atno 6907 bound_to 6896
  152.1492  134.8999  160.0558 H   0  0  0  0  0  0  0  0  0  0  0  0  # atno 6908 bound_to 6896
  152.0103  133.3824  159.4254 H   0  0  0  0  0  0  0  0  0  0  0  0  # atno 6909 bound_to 6896
  144.8792  139.5725  143.5851 H   0  0  0  0  0  0  0  0  0  0  0  0  # atno 7974 bound_to 7965
  155.4508  140.0538  157.3001 H   0  0  0  0  0  0  0  0  0  0  0  0  # atno 8008 bound_to 7997
  154.4778  140.2068  155.9792 H   0  0  0  0  0  0  0  0  0  0  0  0  # atno 8009 bound_to 7997
  156.1159  140.3196  155.8143 H   0  0  0  0  0  0  0  0  0  0  0  0  # atno 8010 bound_to 7997
  139.5997  144.7053  151.3091 H   0  0  0  0  0  0  0  0  0  0  0  0  # atno 10167 bound_to 10162
  156.9899  131.0144  151.2859 H   0  0  0  0  0  0  0  0  0  0  0  0  # atno 10718 bound_to 10713
  153.5525  135.7011  153.5585 H   0  0  0  0  0  0  0  0  0  0  0  0  # atno 10763 bound_to 10752
  153.3502  135.3997  155.1640 H   0  0  0  0  0  0  0  0  0  0  0  0  # atno 10764 bound_to 10752
  154.8659  135.3763  154.5037 H   0  0  0  0  0  0  0  0  0  0  0  0  # atno 10765 bound_to 10752
  140.9813  134.0669  157.3762 H   0  0  0  0  0  0  0  0  0  0  0  0  # atno 11005 bound_to 11000
  146.2983  139.7347  142.9110 LP  0  0  0  0  0  0  0  0  0  0  0  0  # atno 17320 bound_to 7965
  145.3985  141.0382  143.3084 LP  0  0  0  0  0  0  0  0  0  0  0  0  # atno 17321 bound_to 7965
  140.7240  143.7056  150.7810 LP  0  0  0  0  0  0  0  0  0  0  0  0  # atno 17342 bound_to 10162
  140.0630  143.5136  152.2618 LP  0  0  0  0  0  0  0  0  0  0  0  0  # atno 17343 bound_to 10162
  157.5466  130.8155  149.8093 LP  0  0  0  0  0  0  0  0  0  0  0  0  # atno 17370 bound_to 10713
  156.0211  130.3795  150.1959 LP  0  0  0  0  0  0  0  0  0  0  0  0  # atno 17371 bound_to 10713
  139.8951  135.0139  156.6986 LP  0  0  0  0  0  0  0  0  0  0  0  0  # atno 17394 bound_to 11000
  140.7182  133.9164  155.8129 LP  0  0  0  0  0  0  0  0  0  0  0  0  # atno 17395 bound_to 11000

$$$$
