#       Name:                AV-unprocessed.smi:772
#       Creating user name   scv26
#       Creation time:       Fri Mar 27 01:10:40 2020


#       File generated by GOLD software.
#

@<TRIPOS>MOLECULE
AV-unprocessed.smi:772
    49    50     1
SMALL
NO_CHARGES


@<TRIPOS>ATOM
      1 ****        -3.2157   2.7353  -3.3483 C.3            1 S1                 0.0000
      2 ****        -3.3138   2.0756  -1.9892 C.ar           1 S1                 0.0000
      3 ****        -2.8829   2.7148  -0.8071 C.ar           1 S1                 0.0000
      4 ****        -3.0001   2.0368   0.4238 C.ar           1 S1                 0.0000
      5 ****        -3.5438   0.7335   0.4483 C.ar           1 S1                 0.0000
      6 ****        -3.6549  -0.0381   1.7518 C.3            1 S1                 0.0000
      7 ****        -2.6002  -1.1513   1.9012 C.3            1 S1                 0.0000
      8 ****        -1.2346  -0.6345   1.8458 N.am           1 S1                 0.0000
      9 ****        -0.4432  -0.6120   0.7584 C.2            1 S1                 0.0000
     10 ****        -0.8193  -1.0395  -0.3344 O.2            1 S1                 0.0000
     11 ****         0.7823  -0.0636   0.9586 N.am           1 S1                 0.0000
     12 ****         1.3502   0.3359   2.2561 C.3            1 S1                 0.0000
     13 ****         2.2591  -0.7905   2.7707 C.3            1 S1                 0.0000
     14 ****         3.6591  -1.0618   1.6412 S.3            1 S1                 0.0000
     15 ****         2.7696  -1.1926   0.0490 C.3            1 S1                 0.0000
     16 ****         3.7342  -1.3453  -1.1542 C.3            1 S1                 0.0000
     17 ****         4.5048  -2.6758  -1.1078 C.3            1 S1                 0.0000
     18 ****         4.6991  -0.1588  -1.3373 C.3            1 S1                 0.0000
     19 ****         1.7859  -0.0115  -0.1114 C.3            1 S1                 0.0000
     20 ****        -3.9630   0.1473  -0.7651 C.ar           1 S1                 0.0000
     21 ****        -3.8336   0.8295  -1.9235 N.pl3          1 S1                 1.0000
     22 ****        -2.7347   3.7113  -3.2774 H              1 S1                 0.0000
     23 ****        -4.2090   2.8751  -3.7752 H              1 S1                 0.0000
     24 ****        -2.6311   2.1169  -4.0302 H              1 S1                 0.0000
     25 ****        -2.4636   3.7099  -0.8401 H              1 S1                 0.0000
     26 ****        -2.6654   2.5101   1.3355 H              1 S1                 0.0000
     27 ****        -3.5753   0.6565   2.5892 H              1 S1                 0.0000
     28 ****        -4.6534  -0.4719   1.8138 H              1 S1                 0.0000
     29 ****        -2.7316  -1.6485   2.8625 H              1 S1                 0.0000
     30 ****        -2.7521  -1.9203   1.1419 H              1 S1                 0.0000
     31 ****        -0.8558  -0.2654   2.7061 H              1 S1                 0.0000
     32 ****         1.9269   1.2550   2.1431 H              1 S1                 0.0000
     33 ****         0.5914   0.5740   3.0017 H              1 S1                 0.0000
     34 ****         2.6499  -0.5431   3.7577 H              1 S1                 0.0000
     35 ****         1.6970  -1.7194   2.8722 H              1 S1                 0.0000
     36 ****         2.1750  -2.1059   0.1036 H              1 S1                 0.0000
     37 ****         3.1143  -1.3865  -2.0508 H              1 S1                 0.0000
     38 ****         5.1912  -2.7159  -0.2619 H              1 S1                 0.0000
     39 ****         5.0936  -2.8176  -2.0145 H              1 S1                 0.0000
     40 ****         3.8242  -3.5235  -1.0252 H              1 S1                 0.0000
     41 ****         5.3763  -0.0527  -0.4898 H              1 S1                 0.0000
     42 ****         4.1640   0.7824  -1.4587 H              1 S1                 0.0000
     43 ****         5.3130  -0.2936  -2.2282 H              1 S1                 0.0000
     44 ****         1.3219  -0.0384  -1.0986 H              1 S1                 0.0000
     45 ****         2.3154   0.9407  -0.0697 H              1 S1                 0.0000
     46 ****        -4.3831  -0.8448  -0.8450 H              1 S1                 0.0000
     47 ****        -4.1383   0.3822  -2.7884 H              1 S1                 0.0000
     48 ****        -1.7394  -1.4186  -0.4332 LP             1 S1                 0.0000
     49 ****        -0.2045  -1.0073  -1.1224 LP             1 S1                 0.0000
@<TRIPOS>BOND
    1    1    2 1     
    2    1   22 1     
    3    1   23 1     
    4    1   24 1     
    5    2   21 ar    
    6    2    3 ar    
    7    3    4 ar    
    8    3   25 1     
    9    4    5 ar    
   10    4   26 1     
   11    5    6 1     
   12    5   20 ar    
   13    6    7 1     
   14    6   27 1     
   15    6   28 1     
   16    7    8 1     
   17    7   29 1     
   18    7   30 1     
   19    8    9 am    
   20    8   31 1     
   21    9   10 2     
   22    9   11 am    
   23   11   19 1     
   24   11   12 1     
   25   12   13 1     
   26   12   32 1     
   27   12   33 1     
   28   13   14 1     
   29   13   34 1     
   30   13   35 1     
   31   14   15 1     
   32   15   16 1     
   33   15   19 1     
   34   15   36 1     
   35   16   17 1     
   36   16   18 1     
   37   16   37 1     
   38   17   38 1     
   39   17   39 1     
   40   17   40 1     
   41   18   41 1     
   42   18   42 1     
   43   18   43 1     
   44   19   44 1     
   45   19   45 1     
   46   20   21 ar    
   47   20   46 1     
   48   21   47 1     
   49   10   48 1     
   50   10   49 1     
@<TRIPOS>SUBSTRUCTURE
      1 S1             1
@<TRIPOS>SET
LONE_PAIRS      STATIC     ATOMS    <user>   **** ""
2 48 49
DONOR_HYDROGENS      STATIC     ATOMS    <user>   **** ""
2 31 47
ATOM$BLUE        STATIC     ATOMS    COLORGROUP SYSTEM
2 48 49
ATOM$RED        STATIC     ATOMS    COLORGROUP SYSTEM
2 31 47
