AV-unprocessed.smi:3316|AV-procd|sdf|12753|dock8
  -GOLD-   2272019 93D 1   1.00000     0.00000
 Structure written by MMmdl.
 41 43  0  0  0  0  0  0  0  0  2 V2000
  148.5930  140.6970  154.1121 C   0  0  0  0  0  0  0  0  0  0  0  0
  149.2413  140.4880  155.4897 C   0  0  2  0  0  0  0  0  0  0  0  0
  149.9556  141.7640  155.9751 C   0  0  0  0  0  0  0  0  0  0  0  0
  149.1366  142.5106  156.9518 N   0  3  0  0  0  0  0  0  0  0  0  0
  149.7473  142.6150  158.2909 C   0  0  0  0  0  0  0  0  0  0  0  0
  151.2492  142.9411  158.1952 C   0  0  2  0  0  0  0  0  0  0  0  0
  152.0483  142.7236  159.5181 C   0  0  0  0  0  0  0  0  0  0  0  0
  152.7543  144.0835  159.7255 C   0  0  2  0  0  0  0  0  0  0  0  0
  151.6887  145.1065  160.0542 C   0  0  0  0  0  0  0  0  0  0  0  0
  150.9797  145.3111  158.9431 C   0  0  0  0  0  0  0  0  0  0  0  0
  151.5658  144.4233  157.8627 C   0  0  1  0  0  0  0  0  0  0  0  0
  153.0441  144.4600  158.2686 C   0  0  0  0  0  0  0  0  0  0  0  0
  150.1649  139.2758  155.4883 C   0  0  0  0  0  0  0  0  0  0  0  0
  150.7882  138.8491  156.6802 C   0  0  0  0  0  0  0  0  0  0  0  0
  151.6373  137.7251  156.6335 C   0  0  0  0  0  0  0  0  0  0  0  0
  151.8899  137.0339  155.5020 N   0  0  0  0  0  0  0  0  0  0  0  0
  151.2912  137.4448  154.3640 C   0  0  0  0  0  0  0  0  0  0  0  0
  150.4257  138.5553  154.3024 C   0  0  0  0  0  0  0  0  0  0  0  0
  148.0394  139.8103  153.8019 H   0  0  0  0  0  0  0  0  0  0  0  0
  149.3367  140.9112  153.3439 H   0  0  0  0  0  0  0  0  0  0  0  0
  147.8906  141.5306  154.1315 H   0  0  0  0  0  0  0  0  0  0  0  0
  148.4305  140.2834  156.1906 H   0  0  0  0  0  0  0  0  0  0  0  0
  150.9176  141.5168  156.4260 H   0  0  0  0  0  0  0  0  0  0  0  0
  150.1628  142.4143  155.1240 H   0  0  0  0  0  0  0  0  0  0  0  0
  148.9827  143.4437  156.5971 H   0  0  0  0  0  0  0  0  0  0  0  0
  149.2382  143.4030  158.8471 H   0  0  0  0  0  0  0  0  0  0  0  0
  149.5852  141.6824  158.8328 H   0  0  0  0  0  0  0  0  0  0  0  0
  151.6869  142.3194  157.4116 H   0  0  0  0  0  0  0  0  0  0  0  0
  151.4094  142.4710  160.3657 H   0  0  0  0  0  0  0  0  0  0  0  0
  152.7751  141.9188  159.3994 H   0  0  0  0  0  0  0  0  0  0  0  0
  153.6154  144.0866  160.3941 H   0  0  0  0  0  0  0  0  0  0  0  0
  151.5350  145.5467  161.0284 H   0  0  0  0  0  0  0  0  0  0  0  0
  150.1207  145.9534  158.8158 H   0  0  0  0  0  0  0  0  0  0  0  0
  151.3576  144.7446  156.8419 H   0  0  0  0  0  0  0  0  0  0  0  0
  153.4903  145.4514  158.1653 H   0  0  0  0  0  0  0  0  0  0  0  0
  153.6694  143.7371  157.7406 H   0  0  0  0  0  0  0  0  0  0  0  0
  150.6216  139.3653  157.6144 H   0  0  0  0  0  0  0  0  0  0  0  0
  152.1276  137.3738  157.5295 H   0  0  0  0  0  0  0  0  0  0  0  0
  151.5093  136.8722  153.4747 H   0  0  0  0  0  0  0  0  0  0  0  0
  149.9736  138.8394  153.3635 H   0  0  0  0  0  0  0  0  0  0  0  0
  148.2432  142.0475  157.0406 H   0  0  0  0  0  0  0  0  0  0  0  0
  1  2  1  0  0  0  0
  1 19  1  0  0  0  0
  1 20  1  0  0  0  0
  1 21  1  0  0  0  0
  2  3  1  0  0  0  0
  2 13  1  0  0  0  0
  2 22  1  0  0  0  0
  3  4  1  0  0  0  0
  3 23  1  0  0  0  0
  3 24  1  0  0  0  0
  4  5  1  0  0  0  0
  4 25  1  0  0  0  0
  4 41  1  0  0  0  0
  5  6  1  0  0  0  0
  5 26  1  0  0  0  0
  5 27  1  0  0  0  0
  6 11  1  0  0  0  0
  6  7  1  0  0  0  0
  6 28  1  0  0  0  0
  7  8  1  0  0  0  0
  7 29  1  0  0  0  0
  7 30  1  0  0  0  0
  8 12  1  0  0  0  0
  8  9  1  0  0  0  0
  8 31  1  0  0  0  0
  9 10  2  0  0  0  0
  9 32  1  0  0  0  0
 10 11  1  0  0  0  0
 10 33  1  0  0  0  0
 11 12  1  0  0  0  0
 11 34  1  0  0  0  0
 12 35  1  0  0  0  0
 12 36  1  0  0  0  0
 13 18  1  0  0  0  0
 13 14  2  0  0  0  0
 14 15  1  0  0  0  0
 14 37  1  0  0  0  0
 15 16  2  0  0  0  0
 15 38  1  0  0  0  0
 16 17  1  0  0  0  0
 17 18  2  0  0  0  0
 17 39  1  0  0  0  0
 18 40  1  0  0  0  0
M  CHG  1   4   1
M  END
> <s_m_source_file>
AV-unprocessed.smi

> <i_m_source_file_index>
3316

> <i_lp_mmshare_version>
43012

> <i_f3d_flags>
0

> <s_epik_input>
W2NIXTFbY0hdbltjSF1bY0hdYzFbQ0BIXShbQ0gzXSlbQ0gyXVtOSF1bQ0gyXVtDQEhdKFtDSDJdW0NASF0yMylbQ0BIXShbQ0gyXTMpW0NIXT1bQ0hdMg==

> <s_epik_cmdline>
J2VwaWtfcHl0aG9uJywgJy1waCcsICc3LjAnLCAnLXRuJywgJzgnLCAnLW1hJywgJzIwMCcsICctbWV0YWxfYmluZGluZycsICctaW1hZScsICc8aW5maWxlLm1hZT4nLCAnLW9tYWUnLCAnPG91dGZpbGUubWFlPic=

> <r_lp_tautomer_probability>
1

> <r_epik_Ionization_Penalty>
0.00280406

> <r_epik_Ionization_Penalty_Charging>
0.000446589

> <r_epik_Ionization_Penalty_Neutral>
0.00235747

> <r_epik_State_Penalty>
-0

> <r_epik_Charging_Adjusted_Penalty>
0.000446589

> <i_epik_Tot_Q>
1

> <i_epik_Tot_abs_Q>
1

> <r_epik_Metal_State_Penalty>
-0

> <b_epik_Metal_Only>
0

> <s_lp_Force_Field>
OPLS_2005

> <r_lp_Energy>
65.4585

> <b_lp_Chiralities_Consistent>
1

> <s_lp_Variant>
AV-unprocessed.smi:3316-1

> <Gold.Version>
5.8.1

> <Gold.Id.Protein>
6NUR|6NUR_protein|mol2

> <Gold.PLP.Fitness>
51.5528

> <Gold.PLP.PLP>
-41.8887

> <Gold.PLP.part.hbond>
-2.0000

> <Gold.PLP.part.metal>
0.0000

> <Gold.PLP.part.buried>
-3.3852

> <Gold.PLP.part.nonpolar>
-36.9114

> <Gold.PLP.part.repulsive>
0.0746

> <Gold.PLP.ligand.clash>
0.0000

> <Gold.PLP.ligand.torsion>
1.1947

> <Gold.PLP.Chemscore.Hbond>
2.9920

> <Gold.PLP.Chemscore.CHOScore>
1.0000

> <Gold.PLP.Chemscore.Metal>
0.0000

> <Gold.Chemscore.Hbonds>
donor molecule, donor type, donor heavy atom, donor atom, acceptor molecule, acceptor atom, score
      L1  H     4    25       P1  8028  2.00
      P1  H 10752 10765       L1    16  0.68
      L1  C    17    39       P1  7949  1.00

> <Gold.PLP.Chemscore.Internal.Correction>
0.0774

> <Gold.Rescore>
     Score         DG    S(hbond)    S(metal)    S(lipo)     H(rot)  DE(clash)    DE(int)     intcor
     21.65     -24.13       1.75        0.00     139.26       1.36       1.35       1.14       ----

> <Gold.Chemscore.Fitness>
21.6461

> <Gold.Chemscore.DG>
-24.1330

> <Gold.Chemscore.ZeroCoef>
-5.4800

> <Gold.Chemscore.Hbond>
1.7520

> <Gold.Chemscore.Metal>
0.0000

> <Gold.Chemscore.Lipo>
139.2579

> <Gold.Chemscore.Internal_Hbond>
0.0000

> <Gold.Chemscore.DEClash>
1.3512

> <Gold.Chemscore.DEInternal>
1.1358

> <Gold.Chemscore.Rot>
1.3640

> <Gold.Chemscore.Internal.Correction>
   9.000000E+99

> <Gold.Chemscore.Hbonds>
donor molecule, donor type, donor heavy atom, donor atom, acceptor molecule, acceptor atom, score
      L1  H     4    25       P1  8028  0.90
      P1  H 10752 10765       L1    16  0.07

> <Gold.Chemscore.Hbond.Weighted>
-5.8518

> <Gold.Chemscore.Metal.Weighted>
-0.0000

> <Gold.Chemscore.Lipo.Weighted>
-16.2932

> <Gold.Chemscore.Internal_Hbond.Weighted>
0.0000

> <Gold.Chemscore.DEClash.Weighted>
1.3512

> <Gold.Chemscore.DEInternal.Weighted>
1.1358

> <Gold.Chemscore.Rot.Weighted>
3.4919

> <Gold.Chemscore.Internal.Correction.Weighted>
   9.000000E+99

> <Gold.Protein.RotatedTorsions>
[ 6907 6896 6895 6894 ] final   82.69 input  -60.11 | X-H torsion
[ 7974 7965 7964 7962 ] final   65.55 input  175.53 | X-H torsion
[ 8008 7997 7996 7995 ] final  -33.79 input   59.86 | X-H torsion
[ 10167 10162 10161 10158 ] final  -59.46 input  -65.29 | X-H torsion
[ 10718 10713 10712 10709 ] final   71.36 input   66.30 | X-H torsion
[ 10763 10752 10751 10750 ] final  178.84 input  -60.55 | X-H torsion
[ 11005 11000 10999 10996 ] final -150.16 input  -57.11 | X-H torsion

> <Gold.Protein.ActiveResidues>
 VAL166  LYS551  ARG553  GLY616  TRP617  ASP618  TYR619  PRO620  LYS621  CYS622 
 ASP623  PHE694  ASN695  SER759  ASP760  ASP761  ALA762  ILE779  LEU786  VAL792 
 PHE793  MET794  SER795  GLU796  ALA797  LYS798  CYS799  TRP800  GLU811  SER814 

> <Gold.Protein.RotatedAtoms>
  152.5306  134.3011  159.9078 H   0  0  0  0  0  0  0  0  0  0  0  0  # atno 6907 bound_to 6896
  151.2961  133.4137  159.2644 H   0  0  0  0  0  0  0  0  0  0  0  0  # atno 6908 bound_to 6896
  151.0159  134.9448  159.8090 H   0  0  0  0  0  0  0  0  0  0  0  0  # atno 6909 bound_to 6896
  145.8371  139.3173  143.0953 H   0  0  0  0  0  0  0  0  0  0  0  0  # atno 7974 bound_to 7965
  154.4139  140.1701  156.1945 H   0  0  0  0  0  0  0  0  0  0  0  0  # atno 8008 bound_to 7997
  155.9575  140.3396  155.6438 H   0  0  0  0  0  0  0  0  0  0  0  0  # atno 8009 bound_to 7997
  155.6791  140.0720  157.2482 H   0  0  0  0  0  0  0  0  0  0  0  0  # atno 8010 bound_to 7997
  140.6134  143.2394  151.5656 H   0  0  0  0  0  0  0  0  0  0  0  0  # atno 10167 bound_to 10162
  157.6448  130.9524  150.0779 H   0  0  0  0  0  0  0  0  0  0  0  0  # atno 10718 bound_to 10713
  154.5129  135.2789  155.1327 H   0  0  0  0  0  0  0  0  0  0  0  0  # atno 10763 bound_to 10752
  154.2915  135.6266  153.5391 H   0  0  0  0  0  0  0  0  0  0  0  0  # atno 10764 bound_to 10752
  152.9922  135.5675  154.5599 H   0  0  0  0  0  0  0  0  0  0  0  0  # atno 10765 bound_to 10752
  140.7432  134.3491  157.5143 H   0  0  0  0  0  0  0  0  0  0  0  0  # atno 11005 bound_to 11000
  145.9507  140.8911  143.0261 LP  0  0  0  0  0  0  0  0  0  0  0  0  # atno 17320 bound_to 7965
  144.6736  140.1675  143.7417 LP  0  0  0  0  0  0  0  0  0  0  0  0  # atno 17321 bound_to 7965
  139.5379  144.2730  152.1290 LP  0  0  0  0  0  0  0  0  0  0  0  0  # atno 17342 bound_to 10162
  140.1934  144.4730  150.6467 LP  0  0  0  0  0  0  0  0  0  0  0  0  # atno 17343 bound_to 10162
  156.1764  130.3648  149.9095 LP  0  0  0  0  0  0  0  0  0  0  0  0  # atno 17370 bound_to 10713
  156.7058  130.8951  151.3604 LP  0  0  0  0  0  0  0  0  0  0  0  0  # atno 17371 bound_to 10713
  139.8802  134.9094  156.2990 LP  0  0  0  0  0  0  0  0  0  0  0  0  # atno 17394 bound_to 11000
  140.9818  133.7262  156.0683 LP  0  0  0  0  0  0  0  0  0  0  0  0  # atno 17395 bound_to 11000

$$$$
