AV-unprocessed.smi:955|AV-procd|sdf|4259|dock5
  -GOLD-   22720 2163D 1   1.00000     0.00000
 Structure written by MMmdl.
 29 29  0  0  0  0  0  0  0  0  1 V2000
  149.8060  133.4508  154.4177 C   0  0  0  0  0  0  0  0  0  0  0  0
  148.4565  134.1380  154.6836 C   0  0  2  0  0  0  0  0  0  0  0  0
  147.8221  134.3931  153.3924 N   0  0  0  0  0  0  0  0  0  0  0  0
  146.7948  133.6980  152.8759 C   0  0  0  0  0  0  0  0  0  0  0  0
  146.2746  132.7443  153.4568 O   0  0  0  0  0  0  0  0  0  0  0  0
  146.2745  134.1680  151.5050 C   0  0  2  0  0  0  0  0  0  0  0  0
  145.6582  135.5816  151.5424 C   0  0  0  0  0  0  0  0  0  0  0  0
  145.3531  133.1911  150.9331 N   0  0  0  0  0  0  0  0  0  0  0  0
  145.6050  131.8715  150.6155 C   0  0  0  0  0  0  0  0  0  0  0  0
  144.4431  131.3337  150.1415 C   0  0  0  0  0  0  0  0  0  0  0  0
  143.5181  132.4119  150.2135 C   0  0  0  0  0  0  0  0  0  0  0  0
  144.0618  133.5186  150.6927 N   0  0  0  0  0  0  0  0  0  0  0  0
  148.7347  135.4603  155.4167 C   0  0  0  0  0  0  0  0  0  0  0  0
  149.3392  136.4214  154.7148 N   0  0  0  0  0  0  0  0  0  0  0  0
  148.3969  135.6216  156.5890 O   0  0  0  0  0  0  0  0  0  0  0  0
  150.3301  133.2311  155.3487 H   0  0  0  0  0  0  0  0  0  0  0  0
  150.4633  134.0671  153.8022 H   0  0  0  0  0  0  0  0  0  0  0  0
  149.6617  132.5035  153.8971 H   0  0  0  0  0  0  0  0  0  0  0  0
  147.8266  133.4883  155.2948 H   0  0  0  0  0  0  0  0  0  0  0  0
  148.1849  135.1672  152.8555 H   0  0  0  0  0  0  0  0  0  0  0  0
  147.1423  134.2134  150.8452 H   0  0  0  0  0  0  0  0  0  0  0  0
  146.3825  136.3187  151.8902 H   0  0  0  0  0  0  0  0  0  0  0  0
  144.7918  135.6317  152.2031 H   0  0  0  0  0  0  0  0  0  0  0  0
  145.3335  135.8898  150.5483 H   0  0  0  0  0  0  0  0  0  0  0  0
  146.5806  131.4285  150.7532 H   0  0  0  0  0  0  0  0  0  0  0  0
  144.2782  130.3231  149.7989 H   0  0  0  0  0  0  0  0  0  0  0  0
  142.4741  132.4222  149.9374 H   0  0  0  0  0  0  0  0  0  0  0  0
  149.5409  137.3107  155.1479 H   0  0  0  0  0  0  0  0  0  0  0  0
  149.5886  136.2558  153.7505 H   0  0  0  0  0  0  0  0  0  0  0  0
  1  2  1  0  0  0  0
  1 16  1  0  0  0  0
  1 17  1  0  0  0  0
  1 18  1  0  0  0  0
  2  3  1  0  0  0  0
  2 13  1  0  0  0  0
  2 19  1  0  0  0  0
  3  4  1  0  0  0  0
  3 20  1  0  0  0  0
  4  5  2  0  0  0  0
  4  6  1  0  0  0  0
  6  7  1  0  0  0  0
  6  8  1  0  0  0  0
  6 21  1  0  0  0  0
  7 22  1  0  0  0  0
  7 23  1  0  0  0  0
  7 24  1  0  0  0  0
  8 12  1  0  0  0  0
  8  9  1  0  0  0  0
  9 10  2  0  0  0  0
  9 25  1  0  0  0  0
 10 11  1  0  0  0  0
 10 26  1  0  0  0  0
 11 12  2  0  0  0  0
 11 27  1  0  0  0  0
 13 14  1  0  0  0  0
 13 15  2  0  0  0  0
 14 28  1  0  0  0  0
 14 29  1  0  0  0  0
M  END
> <s_m_source_file>
AV-unprocessed.smi

> <i_m_source_file_index>
955

> <i_lp_mmshare_version>
43012

> <i_f3d_flags>
0

> <s_epik_input>
W05IMl1DKD1PKVtDQEhdKFtDSDNdKVtOSF1DKD1PKVtDQEhdKFtDSDNdKW4xW2NIXVtjSF1bY0hdbjE=

> <s_epik_cmdline>
J2VwaWtfcHl0aG9uJywgJy1waCcsICc3LjAnLCAnLXRuJywgJzgnLCAnLW1hJywgJzIwMCcsICctbWV0YWxfYmluZGluZycsICctaW1hZScsICc8aW5maWxlLm1hZT4nLCAnLW9tYWUnLCAnPG91dGZpbGUubWFlPic=

> <r_lp_tautomer_probability>
1

> <r_epik_Ionization_Penalty>
2.8146e-05

> <r_epik_Ionization_Penalty_Charging>
0

> <r_epik_Ionization_Penalty_Neutral>
2.8146e-05

> <r_epik_State_Penalty>
-0

> <r_epik_Charging_Adjusted_Penalty>
0

> <i_epik_Tot_Q>
0

> <i_epik_Tot_abs_Q>
0

> <r_epik_Metal_State_Penalty>
-0

> <b_epik_Metal_Only>
0

> <s_lp_Force_Field>
OPLS_2005

> <r_lp_Energy>
4.37159

> <b_lp_Chiralities_Consistent>
1

> <s_lp_Variant>
AV-unprocessed.smi:955-1

> <Gold.Version>
5.8.1

> <Gold.Id.Protein>
6NUR|6NUR_protein|mol2

> <Gold.PLP.Fitness>
34.0390

> <Gold.PLP.PLP>
-21.1001

> <Gold.PLP.part.hbond>
-2.0000

> <Gold.PLP.part.metal>
0.0000

> <Gold.PLP.part.buried>
-1.9983

> <Gold.PLP.part.nonpolar>
-18.0286

> <Gold.PLP.part.repulsive>
0.3095

> <Gold.PLP.ligand.clash>
0.0000

> <Gold.PLP.ligand.torsion>
0.6152

> <Gold.PLP.Chemscore.Hbond>
1.9920

> <Gold.PLP.Chemscore.CHOScore>
2.6906

> <Gold.PLP.Chemscore.Metal>
0.0000

> <Gold.Chemscore.Hbonds>
donor molecule, donor type, donor heavy atom, donor atom, acceptor molecule, acceptor atom, score
      L1  H     3    20       P1  7948  1.00
      L1  H    14    29       P1  7948  0.96
      L1  C     9    25       P1 10747  1.00
      L1  C    11    27       P1 10186  0.97
      L1  C    11    27       P1 10952  0.65

> <Gold.PLP.Chemscore.Internal.Correction>
0.1213

> <Gold.Rescore>
     Score         DG    S(hbond)    S(metal)    S(lipo)     H(rot)  DE(clash)    DE(int)     intcor
     10.59     -12.06       1.94        0.00      51.08       2.30       0.22       1.25       ----

> <Gold.Chemscore.Fitness>
10.5911

> <Gold.Chemscore.DG>
-12.0650

> <Gold.Chemscore.ZeroCoef>
-5.4800

> <Gold.Chemscore.Hbond>
1.9430

> <Gold.Chemscore.Metal>
0.0000

> <Gold.Chemscore.Lipo>
51.0791

> <Gold.Chemscore.Internal_Hbond>
0.0000

> <Gold.Chemscore.DEClash>
0.2217

> <Gold.Chemscore.DEInternal>
1.2521

> <Gold.Chemscore.Rot>
2.2972

> <Gold.Chemscore.Internal.Correction>
   9.000000E+99

> <Gold.Chemscore.Hbonds>
donor molecule, donor type, donor heavy atom, donor atom, acceptor molecule, acceptor atom, score
      L1  H     3    20       P1  7948  0.95
      L1  H    14    29       P1  7948  0.50

> <Gold.Chemscore.Hbond.Weighted>
-6.4896

> <Gold.Chemscore.Metal.Weighted>
-0.0000

> <Gold.Chemscore.Lipo.Weighted>
-5.9763

> <Gold.Chemscore.Internal_Hbond.Weighted>
0.0000

> <Gold.Chemscore.DEClash.Weighted>
0.2217

> <Gold.Chemscore.DEInternal.Weighted>
1.2521

> <Gold.Chemscore.Rot.Weighted>
5.8809

> <Gold.Chemscore.Internal.Correction.Weighted>
   9.000000E+99

> <Gold.Protein.RotatedTorsions>
[ 6907 6896 6895 6894 ] final  -53.88 input  -60.11 | X-H torsion
[ 7974 7965 7964 7962 ] final   49.09 input  175.53 | X-H torsion
[ 8008 7997 7996 7995 ] final -153.80 input   59.86 | X-H torsion
[ 10167 10162 10161 10158 ] final  -86.89 input  -65.29 | X-H torsion
[ 10718 10713 10712 10709 ] final  171.10 input   66.30 | X-H torsion
[ 10763 10752 10751 10750 ] final   87.76 input  -60.55 | X-H torsion
[ 11005 11000 10999 10996 ] final  -38.56 input  -57.11 | X-H torsion

> <Gold.Protein.ActiveResidues>
 VAL166  LYS551  ARG553  GLY616  TRP617  ASP618  TYR619  PRO620  LYS621  CYS622 
 ASP623  PHE694  ASN695  SER759  ASP760  ASP761  ALA762  ILE779  LEU786  VAL792 
 PHE793  MET794  SER795  GLU796  ALA797  LYS798  CYS799  TRP800  GLU811  SER814 

> <Gold.Protein.RotatedAtoms>
  150.8387  134.7671  159.6914 H   0  0  0  0  0  0  0  0  0  0  0  0  # atno 6907 bound_to 6896
  152.4479  134.5453  159.9861 H   0  0  0  0  0  0  0  0  0  0  0  0  # atno 6908 bound_to 6896
  151.5597  133.3367  159.3004 H   0  0  0  0  0  0  0  0  0  0  0  0  # atno 6909 bound_to 6896
  146.0142  139.4577  142.9937 H   0  0  0  0  0  0  0  0  0  0  0  0  # atno 7974 bound_to 7965
  155.6765  140.0739  157.2501 H   0  0  0  0  0  0  0  0  0  0  0  0  # atno 8008 bound_to 7997
  154.4113  140.1689  156.1987 H   0  0  0  0  0  0  0  0  0  0  0  0  # atno 8009 bound_to 7997
  155.9572  140.3373  155.6462 H   0  0  0  0  0  0  0  0  0  0  0  0  # atno 8010 bound_to 7997
  140.3898  143.2710  151.9279 H   0  0  0  0  0  0  0  0  0  0  0  0  # atno 10167 bound_to 10162
  156.9984  131.0169  151.2837 H   0  0  0  0  0  0  0  0  0  0  0  0  # atno 10718 bound_to 10713
  153.1701  135.4531  154.9890 H   0  0  0  0  0  0  0  0  0  0  0  0  # atno 10763 bound_to 10752
  154.7959  135.3237  154.7669 H   0  0  0  0  0  0  0  0  0  0  0  0  # atno 10764 bound_to 10752
  153.8146  135.6952  153.4890 H   0  0  0  0  0  0  0  0  0  0  0  0  # atno 10765 bound_to 10752
  141.0037  133.6942  156.2069 H   0  0  0  0  0  0  0  0  0  0  0  0  # atno 11005 bound_to 11000
  145.7295  141.0047  143.1359 LP  0  0  0  0  0  0  0  0  0  0  0  0  # atno 17320 bound_to 7965
  144.6964  139.8967  143.7456 LP  0  0  0  0  0  0  0  0  0  0  0  0  # atno 17321 bound_to 7965
  139.4790  144.5739  151.8044 LP  0  0  0  0  0  0  0  0  0  0  0  0  # atno 17342 bound_to 10162
  140.4852  144.1392  150.5939 LP  0  0  0  0  0  0  0  0  0  0  0  0  # atno 17343 bound_to 10162
  157.5408  130.8118  149.8026 LP  0  0  0  0  0  0  0  0  0  0  0  0  # atno 17370 bound_to 10713
  156.0180  130.3806  150.2049 LP  0  0  0  0  0  0  0  0  0  0  0  0  # atno 17371 bound_to 10713
  140.6848  134.4729  157.5589 LP  0  0  0  0  0  0  0  0  0  0  0  0  # atno 17394 bound_to 11000
  139.9052  134.8466  156.1736 LP  0  0  0  0  0  0  0  0  0  0  0  0  # atno 17395 bound_to 11000

$$$$
