#       Name:                AV-unprocessed.smi:1782
#       Creating user name   scv26
#       Creation time:       Fri Mar 27 08:43:13 2020


#       File generated by GOLD software.
#

@<TRIPOS>MOLECULE
AV-unprocessed.smi:1782
    46    48     1
SMALL
NO_CHARGES


@<TRIPOS>ATOM
      1 ****        -0.6430   2.9695   1.7950 O.2            1 S1                 0.0000
      2 ****        -0.0444   2.4795   0.8386 C.2            1 S1                 0.0000
      3 ****         0.9853   3.3374   0.0817 C.3            1 S1                 0.0000
      4 ****         1.6976   2.6444  -1.0086 N.am           1 S1                 0.0000
      5 ****         1.1985   2.8298  -2.3102 C.2            1 S1                 0.0000
      6 ****         1.7662   2.2451  -3.3736 C.2            1 S1                 0.0000
      7 ****         2.9193   1.4061  -3.1561 C.2            1 S1                 0.0000
      8 ****         3.4201   1.2049  -1.9153 C.2            1 S1                 0.0000
      9 ****         4.6360   0.3151  -1.6665 C.3            1 S1                 0.0000
     10 ****         5.6158   1.0100  -1.0876 F              1 S1                 0.0000
     11 ****         4.3145  -0.7007  -0.8642 F              1 S1                 0.0000
     12 ****         5.1143  -0.1978  -2.8011 F              1 S1                 0.0000
     13 ****         2.7858   1.8539  -0.7497 C.2            1 S1                 0.0000
     14 ****         3.1962   1.6912   0.4005 O.2            1 S1                 0.0000
     15 ****        -0.2502   1.2174   0.4263 N.am           1 S1                 0.0000
     16 ****        -1.1652   0.2701   1.0505 C.3            1 S1                 0.0000
     17 ****        -0.6944  -0.2779   2.3944 C.3            1 S1                 0.0000
     18 ****        -1.5166  -1.5635   2.5339 C.3            1 S1                 0.0000
     19 ****        -1.7965  -2.0414   1.1568 N.4            1 S1                 1.0000
     20 ****        -3.2081  -2.4251   0.9375 C.3            1 S1                 0.0000
     21 ****        -3.5284  -3.8329   1.3803 C.3            1 S1                 0.0000
     22 ****        -3.3822  -3.5159  -0.0924 C.3            1 S1                 0.0000
     23 ****        -1.3127  -1.0038   0.2194 C.3            1 S1                 0.0000
     24 ****         0.4680   4.2163  -0.3058 H              1 S1                 0.0000
     25 ****         1.7007   3.7336   0.8045 H              1 S1                 0.0000
     26 ****         0.3303   3.4685  -2.3864 H              1 S1                 0.0000
     27 ****         1.3698   2.3963  -4.3670 H              1 S1                 0.0000
     28 ****         3.3788   0.9346  -4.0121 H              1 S1                 0.0000
     29 ****         0.2765   0.8900  -0.3706 H              1 S1                 0.0000
     30 ****        -2.1473   0.7326   1.1688 H              1 S1                 0.0000
     31 ****         0.3697  -0.5172   2.3550 H              1 S1                 0.0000
     32 ****        -0.8543   0.4168   3.2196 H              1 S1                 0.0000
     33 ****        -0.9937  -2.3239   3.1143 H              1 S1                 0.0000
     34 ****        -2.4515  -1.3406   3.0513 H              1 S1                 0.0000
     35 ****        -3.9481  -1.6322   1.0347 H              1 S1                 0.0000
     36 ****        -2.7390  -4.4170   1.8505 H              1 S1                 0.0000
     37 ****        -4.5333  -4.0267   1.7502 H              1 S1                 0.0000
     38 ****        -4.2905  -3.5005  -0.6916 H              1 S1                 0.0000
     39 ****        -2.4957  -3.8901  -0.6018 H              1 S1                 0.0000
     40 ****        -1.9715  -0.8666  -0.6396 H              1 S1                 0.0000
     41 ****        -0.3414  -1.3247  -0.1606 H              1 S1                 0.0000
     42 ****        -1.2360  -2.8663   0.9973 H              1 S1                 0.0000
     43 ****        -0.4577   3.9127   2.0708 LP             1 S1                 0.0000
     44 ****        -1.3149   2.4247   2.2967 LP             1 S1                 0.0000
     45 ****         2.7332   2.1401   1.1648 LP             1 S1                 0.0000
     46 ****         3.9924   1.1103   0.5698 LP             1 S1                 0.0000
@<TRIPOS>BOND
    1    1    2 2     
    2    2    3 1     
    3    2   15 am    
    4    3    4 1     
    5    3   24 1     
    6    3   25 1     
    7    4   13 am    
    8    4    5 1     
    9    5    6 2     
   10    5   26 1     
   11    6    7 1     
   12    6   27 1     
   13    7    8 2     
   14    7   28 1     
   15    8    9 1     
   16    8   13 1     
   17    9   10 1     
   18    9   11 1     
   19    9   12 1     
   20   13   14 2     
   21   15   16 1     
   22   15   29 1     
   23   16   23 1     
   24   16   17 1     
   25   16   30 1     
   26   17   18 1     
   27   17   31 1     
   28   17   32 1     
   29   18   19 1     
   30   18   33 1     
   31   18   34 1     
   32   19   20 1     
   33   19   23 1     
   34   19   42 1     
   35   20   22 1     
   36   20   21 1     
   37   20   35 1     
   38   21   22 1     
   39   21   36 1     
   40   21   37 1     
   41   22   38 1     
   42   22   39 1     
   43   23   40 1     
   44   23   41 1     
   45    1   43 1     
   46    1   44 1     
   47   14   45 1     
   48   14   46 1     
@<TRIPOS>SUBSTRUCTURE
      1 S1             1
@<TRIPOS>SET
LONE_PAIRS      STATIC     ATOMS    <user>   **** ""
4 43 44 45 46
DONOR_HYDROGENS      STATIC     ATOMS    <user>   **** ""
2 29 42
ATOM$BLUE        STATIC     ATOMS    COLORGROUP SYSTEM
4 43 44 45 46
ATOM$RED        STATIC     ATOMS    COLORGROUP SYSTEM
2 29 42
