AV-unprocessed.smi:946|AV-procd|sdf|4235|dock7
  -GOLD-   22720 2143D 1   1.00000     0.00000
 Structure written by MMmdl.
 42 43  0  0  0  0  0  0  0  0  1 V2000
  149.6555  135.8410  157.4601 C   0  0  0  0  0  0  0  0  0  0  0  0
  149.2660  137.0886  158.2663 C   0  0  1  0  0  0  0  0  0  0  0  0
  148.3272  136.6829  159.2584 O   0  0  0  0  0  0  0  0  0  0  0  0
  148.7981  135.7094  160.1835 C   0  0  0  0  0  0  0  0  0  0  0  0
  147.9385  135.7806  161.4525 C   0  0  2  0  0  0  0  0  0  0  0  0
  146.6573  134.9325  161.3305 C   0  0  0  0  0  0  0  0  0  0  0  0
  145.7839  135.0937  162.5800 C   0  0  0  0  0  0  0  0  0  0  0  0
  145.5269  136.5814  162.8428 C   0  0  0  0  0  0  0  0  0  0  0  0
  146.8535  137.3568  162.8724 C   0  0  0  0  0  0  0  0  0  0  0  0
  147.5682  137.1423  161.6593 O   0  0  0  0  0  0  0  0  0  0  0  0
  150.4957  137.7292  158.9294 C   0  0  0  0  0  0  0  0  0  0  0  0
  151.1512  137.0840  159.7482 O   0  0  0  0  0  0  0  0  0  0  0  0
  150.7657  138.9951  158.5589 N   0  0  0  0  0  0  0  0  0  0  0  0
  151.8097  139.8414  159.0164 C   0  0  0  0  0  0  0  0  0  0  0  0
  151.6605  141.2076  158.6911 C   0  0  0  0  0  0  0  0  0  0  0  0
  152.6419  142.1281  159.1050 C   0  0  0  0  0  0  0  0  0  0  0  0
  153.7472  141.6603  159.8375 C   0  0  0  0  0  0  0  0  0  0  0  0
  153.8233  140.2809  160.1255 C   0  0  0  0  0  0  0  0  0  0  0  0
  154.9818  139.6930  160.9189 C   0  0  0  0  0  0  0  0  0  0  0  0
  155.0716  140.3010  162.1022 F   0  0  0  0  0  0  0  0  0  0  0  0
  154.8235  138.3852  161.1274 F   0  0  0  0  0  0  0  0  0  0  0  0
  156.1215  139.8779  160.2523 F   0  0  0  0  0  0  0  0  0  0  0  0
  152.8792  139.4004  159.7229 N   0  0  0  0  0  0  0  0  0  0  0  0
  150.3810  136.0824  156.6824 H   0  0  0  0  0  0  0  0  0  0  0  0
  148.7821  135.4089  156.9715 H   0  0  0  0  0  0  0  0  0  0  0  0
  150.0905  135.0694  158.0968 H   0  0  0  0  0  0  0  0  0  0  0  0
  148.7923  137.8007  157.5877 H   0  0  0  0  0  0  0  0  0  0  0  0
  148.7709  134.7013  159.7679 H   0  0  0  0  0  0  0  0  0  0  0  0
  149.8372  135.9336  160.4286 H   0  0  0  0  0  0  0  0  0  0  0  0
  148.5275  135.4252  162.3002 H   0  0  0  0  0  0  0  0  0  0  0  0
  146.0937  135.2410  160.4488 H   0  0  0  0  0  0  0  0  0  0  0  0
  146.9103  133.8815  161.1879 H   0  0  0  0  0  0  0  0  0  0  0  0
  144.8412  134.5598  162.4580 H   0  0  0  0  0  0  0  0  0  0  0  0
  146.2878  134.6500  163.4397 H   0  0  0  0  0  0  0  0  0  0  0  0
  144.8868  136.9865  162.0580 H   0  0  0  0  0  0  0  0  0  0  0  0
  144.9910  136.7121  163.7834 H   0  0  0  0  0  0  0  0  0  0  0  0
  146.6610  138.4240  162.9837 H   0  0  0  0  0  0  0  0  0  0  0  0
  147.4640  137.0536  163.7244 H   0  0  0  0  0  0  0  0  0  0  0  0
  150.1516  139.3972  157.8661 H   0  0  0  0  0  0  0  0  0  0  0  0
  150.8043  141.5517  158.1290 H   0  0  0  0  0  0  0  0  0  0  0  0
  152.5466  143.1767  158.8649 H   0  0  0  0  0  0  0  0  0  0  0  0
  154.5109  142.3490  160.1671 H   0  0  0  0  0  0  0  0  0  0  0  0
  1  2  1  0  0  0  0
  1 24  1  0  0  0  0
  1 25  1  0  0  0  0
  1 26  1  0  0  0  0
  2  3  1  0  0  0  0
  2 11  1  0  0  0  0
  2 27  1  0  0  0  0
  3  4  1  0  0  0  0
  4  5  1  0  0  0  0
  4 28  1  0  0  0  0
  4 29  1  0  0  0  0
  5 10  1  0  0  0  0
  5  6  1  0  0  0  0
  5 30  1  0  0  0  0
  6  7  1  0  0  0  0
  6 31  1  0  0  0  0
  6 32  1  0  0  0  0
  7  8  1  0  0  0  0
  7 33  1  0  0  0  0
  7 34  1  0  0  0  0
  8  9  1  0  0  0  0
  8 35  1  0  0  0  0
  8 36  1  0  0  0  0
  9 10  1  0  0  0  0
  9 37  1  0  0  0  0
  9 38  1  0  0  0  0
 11 12  2  0  0  0  0
 11 13  1  0  0  0  0
 13 14  1  0  0  0  0
 13 39  1  0  0  0  0
 14 23  1  0  0  0  0
 14 15  2  0  0  0  0
 15 16  1  0  0  0  0
 15 40  1  0  0  0  0
 16 17  2  0  0  0  0
 16 41  1  0  0  0  0
 17 18  1  0  0  0  0
 17 42  1  0  0  0  0
 18 19  1  0  0  0  0
 18 23  2  0  0  0  0
 19 20  1  0  0  0  0
 19 21  1  0  0  0  0
 19 22  1  0  0  0  0
M  END
> <s_m_source_file>
AV-unprocessed.smi

> <i_m_source_file_index>
946

> <i_lp_mmshare_version>
43012

> <i_f3d_flags>
0

> <s_epik_input>
TzFbQ0gyXVtDSDJdW0NIMl1bQ0gyXVtDQEhdMVtDSDJdT1tDQEBIXShbQ0gzXSlDKD1PKVtOSF1jMltjSF1bY0hdW2NIXWMobjIpQyhGKShGKUY=

> <s_epik_cmdline>
J2VwaWtfcHl0aG9uJywgJy1waCcsICc3LjAnLCAnLXRuJywgJzgnLCAnLW1hJywgJzIwMCcsICctbWV0YWxfYmluZGluZycsICctaW1hZScsICc8aW5maWxlLm1hZT4nLCAnLW9tYWUnLCAnPG91dGZpbGUubWFlPic=

> <r_lp_tautomer_probability>
1

> <r_epik_Ionization_Penalty>
1.32683e-06

> <r_epik_Ionization_Penalty_Charging>
0

> <r_epik_Ionization_Penalty_Neutral>
1.32683e-06

> <r_epik_State_Penalty>
-0

> <r_epik_Charging_Adjusted_Penalty>
0

> <i_epik_Tot_Q>
0

> <i_epik_Tot_abs_Q>
0

> <r_epik_Metal_State_Penalty>
-0

> <b_epik_Metal_Only>
0

> <s_lp_Force_Field>
OPLS_2005

> <r_lp_Energy>
15.913

> <b_lp_Chiralities_Consistent>
1

> <s_lp_Variant>
AV-unprocessed.smi:946-2

> <Gold.Version>
5.8.1

> <Gold.Id.Protein>
6NUR|6NUR_protein|mol2

> <Gold.PLP.Fitness>
44.3792

> <Gold.PLP.PLP>
-37.3866

> <Gold.PLP.part.hbond>
-2.9685

> <Gold.PLP.part.metal>
0.0000

> <Gold.PLP.part.buried>
-5.8717

> <Gold.PLP.part.nonpolar>
-30.1613

> <Gold.PLP.part.repulsive>
0.1616

> <Gold.PLP.ligand.clash>
0.0000

> <Gold.PLP.ligand.torsion>
0.4725

> <Gold.PLP.Chemscore.Hbond>
2.6233

> <Gold.PLP.Chemscore.CHOScore>
0.0000

> <Gold.PLP.Chemscore.Metal>
0.0000

> <Gold.Chemscore.Hbonds>
donor molecule, donor type, donor heavy atom, donor atom, acceptor molecule, acceptor atom, score
      P1  H  6896  6907       L1    12  1.00
      P1  H  6931  6943       L1    10  0.99
      P1  H  6934  6947       L1    10  0.53

> <Gold.PLP.Chemscore.Internal.Correction>
0.0679

> <Gold.Rescore>
     Score         DG    S(hbond)    S(metal)    S(lipo)     H(rot)  DE(clash)    DE(int)     intcor
     13.94     -16.81       1.61        0.00      89.45       1.76       0.00       2.87       ----

> <Gold.Chemscore.Fitness>
13.9398

> <Gold.Chemscore.DG>
-16.8148

> <Gold.Chemscore.ZeroCoef>
-5.4800

> <Gold.Chemscore.Hbond>
1.6061

> <Gold.Chemscore.Metal>
0.0000

> <Gold.Chemscore.Lipo>
89.4465

> <Gold.Chemscore.Internal_Hbond>
0.0000

> <Gold.Chemscore.DEClash>
0.0004

> <Gold.Chemscore.DEInternal>
2.8746

> <Gold.Chemscore.Rot>
1.7557

> <Gold.Chemscore.Internal.Correction>
   9.000000E+99

> <Gold.Chemscore.Hbonds>
donor molecule, donor type, donor heavy atom, donor atom, acceptor molecule, acceptor atom, score
      P1  H  6896  6907       L1    12  0.99
      P1  H  6931  6943       L1    10  0.24
      P1  H  6934  6947       L1    10  0.05

> <Gold.Chemscore.Hbond.Weighted>
-5.3642

> <Gold.Chemscore.Metal.Weighted>
-0.0000

> <Gold.Chemscore.Lipo.Weighted>
-10.4652

> <Gold.Chemscore.Internal_Hbond.Weighted>
0.0000

> <Gold.Chemscore.DEClash.Weighted>
0.0004

> <Gold.Chemscore.DEInternal.Weighted>
2.8746

> <Gold.Chemscore.Rot.Weighted>
4.4946

> <Gold.Chemscore.Internal.Correction.Weighted>
   9.000000E+99

> <Gold.Protein.RotatedTorsions>
[ 6907 6896 6895 6894 ] final  -13.46 input  -60.11 | X-H torsion
[ 7974 7965 7964 7962 ] final  149.24 input  175.53 | X-H torsion
[ 8008 7997 7996 7995 ] final  -82.22 input   59.86 | X-H torsion
[ 10167 10162 10161 10158 ] final  -78.88 input  -65.29 | X-H torsion
[ 10718 10713 10712 10709 ] final  141.33 input   66.30 | X-H torsion
[ 10763 10752 10751 10750 ] final -144.80 input  -60.55 | X-H torsion
[ 11005 11000 10999 10996 ] final  -35.59 input  -57.11 | X-H torsion

> <Gold.Protein.ActiveResidues>
 VAL166  LYS551  ARG553  GLY616  TRP617  ASP618  TYR619  PRO620  LYS621  CYS622 
 ASP623  PHE694  ASN695  SER759  ASP760  ASP761  ALA762  ILE779  LEU786  VAL792 
 PHE793  MET794  SER795  GLU796  ALA797  LYS798  CYS799  TRP800  GLU811  SER814 

> <Gold.Protein.RotatedAtoms>
  151.3545  135.0891  159.9413 H   0  0  0  0  0  0  0  0  0  0  0  0  # atno 6907 bound_to 6896
  152.5178  133.9319  159.7595 H   0  0  0  0  0  0  0  0  0  0  0  0  # atno 6908 bound_to 6896
  150.9701  133.6299  159.2769 H   0  0  0  0  0  0  0  0  0  0  0  0  # atno 6909 bound_to 6896
  144.8453  139.6255  143.5998 H   0  0  0  0  0  0  0  0  0  0  0  0  # atno 7974 bound_to 7965
  154.6063  140.0636  156.9435 H   0  0  0  0  0  0  0  0  0  0  0  0  # atno 8008 bound_to 7997
  155.2047  140.3318  155.4319 H   0  0  0  0  0  0  0  0  0  0  0  0  # atno 8009 bound_to 7997
  156.2349  140.1858  156.7128 H   0  0  0  0  0  0  0  0  0  0  0  0  # atno 8010 bound_to 7997
  140.4643  143.2444  151.8302 H   0  0  0  0  0  0  0  0  0  0  0  0  # atno 10167 bound_to 10162
  157.3932  131.1007  151.0626 H   0  0  0  0  0  0  0  0  0  0  0  0  # atno 10718 bound_to 10713
  154.8412  135.3430  154.6403 H   0  0  0  0  0  0  0  0  0  0  0  0  # atno 10763 bound_to 10752
  153.7014  135.6969  153.5067 H   0  0  0  0  0  0  0  0  0  0  0  0  # atno 10764 bound_to 10752
  153.2520  135.4350  155.0762 H   0  0  0  0  0  0  0  0  0  0  0  0  # atno 10765 bound_to 10752
  140.9808  133.7057  156.1680 H   0  0  0  0  0  0  0  0  0  0  0  0  # atno 11005 bound_to 11000
  146.2739  139.6703  142.9277 LP  0  0  0  0  0  0  0  0  0  0  0  0  # atno 17320 bound_to 7965
  145.4610  141.0433  143.2752 LP  0  0  0  0  0  0  0  0  0  0  0  0  # atno 17321 bound_to 7965
  139.4810  144.4970  151.9111 LP  0  0  0  0  0  0  0  0  0  0  0  0  # atno 17342 bound_to 10162
  140.4055  144.2437  150.5891 LP  0  0  0  0  0  0  0  0  0  0  0  0  # atno 17343 bound_to 10162
  157.1652  130.6243  149.5623 LP  0  0  0  0  0  0  0  0  0  0  0  0  # atno 17370 bound_to 10713
  155.9803  130.4804  150.6768 LP  0  0  0  0  0  0  0  0  0  0  0  0  # atno 17371 bound_to 10713
  140.7190  134.4379  157.5576 LP  0  0  0  0  0  0  0  0  0  0  0  0  # atno 17394 bound_to 11000
  139.8949  134.8695  156.2155 LP  0  0  0  0  0  0  0  0  0  0  0  0  # atno 17395 bound_to 11000

$$$$
