AV-unprocessed.smi:1993|AV-procd|sdf|8071|dock5
  -GOLD-   2272010283D 1   1.00000     0.00000
 Structure written by MMmdl.
 50 51  0  0  0  0  0  0  0  0  1 V2000
  150.4658  140.8667  155.7373 C   0  0  0  0  0  0  0  0  0  0  0  0
  149.4393  140.7704  154.6141 C   0  0  0  0  0  0  0  0  0  0  0  0
  149.7961  140.8726  153.4408 O   0  0  0  0  0  0  0  0  0  0  0  0
  148.1659  140.5692  154.9878 N   0  0  0  0  0  0  0  0  0  0  0  0
  147.0263  140.4320  154.0792 C   0  0  1  0  0  0  0  0  0  0  0  0
  146.9243  138.9561  153.6508 C   0  0  0  0  0  0  0  0  0  0  0  0
  147.7495  138.1315  154.0479 O   0  0  0  0  0  0  0  0  0  0  0  0
  145.8947  138.6389  152.8515 N   0  0  0  0  0  0  0  0  0  0  0  0
  145.5929  137.2968  152.3695 C   0  0  0  0  0  0  0  0  0  0  0  0
  144.3784  136.6867  153.0572 C   0  0  0  0  0  0  0  0  0  0  0  0
  143.6583  137.4478  154.0021 C   0  0  0  0  0  0  0  0  0  0  0  0
  142.5342  136.8789  154.6280 C   0  0  0  0  0  0  0  0  0  0  0  0
  142.1721  135.5643  154.2821 C   0  0  0  0  0  0  0  0  0  0  0  0
  142.8492  134.8245  153.3793 N   0  0  0  0  0  0  0  0  0  0  0  0
  143.9333  135.3694  152.7756 C   0  0  0  0  0  0  0  0  0  0  0  0
  144.6098  134.5828  151.8292 N   0  0  0  0  0  0  0  0  0  0  0  0
  143.8780  133.3798  151.4582 C   0  0  0  0  0  0  0  0  0  0  0  0
  144.5904  132.6712  150.2939 C   0  0  0  0  0  0  0  0  0  0  0  0
  145.9412  132.3966  150.6559 O   0  0  0  0  0  0  0  0  0  0  0  0
  146.6699  133.5850  150.9526 C   0  0  0  0  0  0  0  0  0  0  0  0
  146.0092  134.3132  152.1357 C   0  0  0  0  0  0  0  0  0  0  0  0
  145.7304  140.8634  154.8286 C   0  0  0  0  0  0  0  0  0  0  0  0
  145.6870  142.3734  155.1416 C   0  0  0  0  0  0  0  0  0  0  0  0
  145.5340  140.0743  156.1382 C   0  0  0  0  0  0  0  0  0  0  0  0
  150.0895  141.4826  156.5548 H   0  0  0  0  0  0  0  0  0  0  0  0
  151.3937  141.3110  155.3758 H   0  0  0  0  0  0  0  0  0  0  0  0
  150.6914  139.8740  156.1274 H   0  0  0  0  0  0  0  0  0  0  0  0
  147.9688  140.4898  155.9748 H   0  0  0  0  0  0  0  0  0  0  0  0
  147.1688  141.0698  153.2041 H   0  0  0  0  0  0  0  0  0  0  0  0
  145.2688  139.3780  152.5664 H   0  0  0  0  0  0  0  0  0  0  0  0
  145.4133  137.3464  151.2953 H   0  0  0  0  0  0  0  0  0  0  0  0
  146.4610  136.6477  152.4954 H   0  0  0  0  0  0  0  0  0  0  0  0
  143.9597  138.4566  154.2428 H   0  0  0  0  0  0  0  0  0  0  0  0
  141.9630  137.4374  155.3545 H   0  0  0  0  0  0  0  0  0  0  0  0
  141.3148  135.0941  154.7407 H   0  0  0  0  0  0  0  0  0  0  0  0
  143.8105  132.7120  152.3181 H   0  0  0  0  0  0  0  0  0  0  0  0
  142.8599  133.6388  151.1702 H   0  0  0  0  0  0  0  0  0  0  0  0
  144.0866  131.7336  150.0592 H   0  0  0  0  0  0  0  0  0  0  0  0
  144.5618  133.2841  149.3915 H   0  0  0  0  0  0  0  0  0  0  0  0
  147.6979  133.3202  151.1999 H   0  0  0  0  0  0  0  0  0  0  0  0
  146.7090  134.2287  150.0724 H   0  0  0  0  0  0  0  0  0  0  0  0
  146.5297  135.2495  152.3400 H   0  0  0  0  0  0  0  0  0  0  0  0
  146.0816  133.6978  153.0335 H   0  0  0  0  0  0  0  0  0  0  0  0
  144.8717  140.6416  154.1925 H   0  0  0  0  0  0  0  0  0  0  0  0
  146.5288  142.6681  155.7681 H   0  0  0  0  0  0  0  0  0  0  0  0
  144.7735  142.6353  155.6758 H   0  0  0  0  0  0  0  0  0  0  0  0
  145.7090  142.9851  154.2394 H   0  0  0  0  0  0  0  0  0  0  0  0
  146.3770  140.2177  156.8150 H   0  0  0  0  0  0  0  0  0  0  0  0
  145.4292  139.0042  155.9593 H   0  0  0  0  0  0  0  0  0  0  0  0
  144.6325  140.3971  156.6598 H   0  0  0  0  0  0  0  0  0  0  0  0
  1  2  1  0  0  0  0
  1 25  1  0  0  0  0
  1 26  1  0  0  0  0
  1 27  1  0  0  0  0
  2  3  2  0  0  0  0
  2  4  1  0  0  0  0
  4  5  1  0  0  0  0
  4 28  1  0  0  0  0
  5  6  1  0  0  0  0
  5 22  1  0  0  0  0
  5 29  1  0  0  0  0
  6  7  2  0  0  0  0
  6  8  1  0  0  0  0
  8  9  1  0  0  0  0
  8 30  1  0  0  0  0
  9 10  1  0  0  0  0
  9 31  1  0  0  0  0
  9 32  1  0  0  0  0
 10 15  1  0  0  0  0
 10 11  2  0  0  0  0
 11 12  1  0  0  0  0
 11 33  1  0  0  0  0
 12 13  2  0  0  0  0
 12 34  1  0  0  0  0
 13 14  1  0  0  0  0
 13 35  1  0  0  0  0
 14 15  2  0  0  0  0
 15 16  1  0  0  0  0
 16 21  1  0  0  0  0
 16 17  1  0  0  0  0
 17 18  1  0  0  0  0
 17 36  1  0  0  0  0
 17 37  1  0  0  0  0
 18 19  1  0  0  0  0
 18 38  1  0  0  0  0
 18 39  1  0  0  0  0
 19 20  1  0  0  0  0
 20 21  1  0  0  0  0
 20 40  1  0  0  0  0
 20 41  1  0  0  0  0
 21 42  1  0  0  0  0
 21 43  1  0  0  0  0
 22 23  1  0  0  0  0
 22 24  1  0  0  0  0
 22 44  1  0  0  0  0
 23 45  1  0  0  0  0
 23 46  1  0  0  0  0
 23 47  1  0  0  0  0
 24 48  1  0  0  0  0
 24 49  1  0  0  0  0
 24 50  1  0  0  0  0
M  END
> <s_m_source_file>
AV-unprocessed.smi

> <i_m_source_file_index>
1993

> <i_lp_mmshare_version>
43012

> <i_f3d_flags>
0

> <s_epik_input>
W0NIM11DKD1PKVtOSF1bQ0BASF0oW0NIXShbQ0gzXSlbQ0gzXSlDKD1PKVtOSF1bQ0gyXWMxW2NIXVtjSF1bY0hdbmMxTjJbQ0gyXVtDSDJdT1tDSDJdW0NIMl0y

> <s_epik_cmdline>
J2VwaWtfcHl0aG9uJywgJy1waCcsICc3LjAnLCAnLXRuJywgJzgnLCAnLW1hJywgJzIwMCcsICctbWV0YWxfYmluZGluZycsICctaW1hZScsICc8aW5maWxlLm1hZT4nLCAnLW9tYWUnLCAnPG91dGZpbGUubWFlPic=

> <r_lp_tautomer_probability>
1

> <r_epik_Ionization_Penalty>
0.00485175

> <r_epik_Ionization_Penalty_Charging>
0

> <r_epik_Ionization_Penalty_Neutral>
0.00485175

> <r_epik_State_Penalty>
0.00351951

> <r_epik_Charging_Adjusted_Penalty>
0.00351951

> <i_epik_Tot_Q>
0

> <i_epik_Tot_abs_Q>
0

> <r_epik_Metal_State_Penalty>
-0

> <b_epik_Metal_Only>
0

> <s_lp_Force_Field>
OPLS_2005

> <r_lp_Energy>
18.9648

> <b_lp_Chiralities_Consistent>
1

> <s_lp_Variant>
AV-unprocessed.smi:1993-2

> <Gold.Version>
5.8.1

> <Gold.Id.Protein>
6NUR|6NUR_protein|mol2

> <Gold.PLP.Fitness>
37.7399

> <Gold.PLP.PLP>
-28.5567

> <Gold.PLP.part.hbond>
-2.7300

> <Gold.PLP.part.metal>
0.0000

> <Gold.PLP.part.buried>
-5.4537

> <Gold.PLP.part.nonpolar>
-24.7268

> <Gold.PLP.part.repulsive>
4.5972

> <Gold.PLP.ligand.clash>
0.0000

> <Gold.PLP.ligand.torsion>
0.6031

> <Gold.PLP.Chemscore.Hbond>
2.3840

> <Gold.PLP.Chemscore.CHOScore>
1.0000

> <Gold.PLP.Chemscore.Metal>
0.0000

> <Gold.Chemscore.Hbonds>
donor molecule, donor type, donor heavy atom, donor atom, acceptor molecule, acceptor atom, score
      L1  H     8    30       P1 10175  1.00
      P1  H  7989  7998       L1     3  0.29
      P1  H  8011  8017       L1     3  1.00
      L1  C    13    35       P1 11000  1.00

> <Gold.PLP.Chemscore.Internal.Correction>
0.2374

> <Gold.Rescore>
     Score         DG    S(hbond)    S(metal)    S(lipo)     H(rot)  DE(clash)    DE(int)     intcor
     12.83     -14.16       2.12        0.00      61.31       2.18       0.45       0.87       ----

> <Gold.Chemscore.Fitness>
12.8312

> <Gold.Chemscore.DG>
-14.1569

> <Gold.Chemscore.ZeroCoef>
-5.4800

> <Gold.Chemscore.Hbond>
2.1221

> <Gold.Chemscore.Metal>
0.0000

> <Gold.Chemscore.Lipo>
61.3096

> <Gold.Chemscore.Internal_Hbond>
0.0000

> <Gold.Chemscore.DEClash>
0.4527

> <Gold.Chemscore.DEInternal>
0.8730

> <Gold.Chemscore.Rot>
2.1813

> <Gold.Chemscore.Internal.Correction>
   9.000000E+99

> <Gold.Chemscore.Hbonds>
donor molecule, donor type, donor heavy atom, donor atom, acceptor molecule, acceptor atom, score
      L1  H     8    30       P1 10175  0.99
      P1  H  7989  7998       L1     3  0.18
      P1  H  8011  8017       L1     3  0.98

> <Gold.Chemscore.Hbond.Weighted>
-7.0878

> <Gold.Chemscore.Metal.Weighted>
-0.0000

> <Gold.Chemscore.Lipo.Weighted>
-7.1732

> <Gold.Chemscore.Internal_Hbond.Weighted>
0.0000

> <Gold.Chemscore.DEClash.Weighted>
0.4527

> <Gold.Chemscore.DEInternal.Weighted>
0.8730

> <Gold.Chemscore.Rot.Weighted>
5.5842

> <Gold.Chemscore.Internal.Correction.Weighted>
   9.000000E+99

> <Gold.Protein.RotatedTorsions>
[ 6907 6896 6895 6894 ] final    2.80 input  -60.11 | X-H torsion
[ 7974 7965 7964 7962 ] final -144.49 input  175.53 | X-H torsion
[ 8008 7997 7996 7995 ] final   -3.92 input   59.86 | X-H torsion
[ 10167 10162 10161 10158 ] final  101.44 input  -65.29 | X-H torsion
[ 10718 10713 10712 10709 ] final   96.94 input   66.30 | X-H torsion
[ 10763 10752 10751 10750 ] final -177.06 input  -60.55 | X-H torsion
[ 11005 11000 10999 10996 ] final -131.66 input  -57.11 | X-H torsion

> <Gold.Protein.ActiveResidues>
 VAL166  LYS551  ARG553  GLY616  TRP617  ASP618  TYR619  PRO620  LYS621  CYS622 
 ASP623  PHE694  ASN695  SER759  ASP760  ASP761  ALA762  ILE779  LEU786  VAL792 
 PHE793  MET794  SER795  GLU796  ALA797  LYS798  CYS799  TRP800  GLU811  SER814 

> <Gold.Protein.RotatedAtoms>
  151.6147  135.1037  160.0088 H   0  0  0  0  0  0  0  0  0  0  0  0  # atno 6907 bound_to 6896
  152.4189  133.7080  159.6473 H   0  0  0  0  0  0  0  0  0  0  0  0  # atno 6908 bound_to 6896
  150.8077  133.8406  159.3219 H   0  0  0  0  0  0  0  0  0  0  0  0  # atno 6909 bound_to 6896
  144.8294  140.5703  143.5525 H   0  0  0  0  0  0  0  0  0  0  0  0  # atno 7974 bound_to 7965
  154.6198  140.2497  155.7564 H   0  0  0  0  0  0  0  0  0  0  0  0  # atno 8008 bound_to 7997
  156.2420  140.2929  156.0419 H   0  0  0  0  0  0  0  0  0  0  0  0  # atno 8009 bound_to 7997
  155.1916  140.0391  157.2891 H   0  0  0  0  0  0  0  0  0  0  0  0  # atno 8010 bound_to 7997
  139.7438  144.7004  151.0535 H   0  0  0  0  0  0  0  0  0  0  0  0  # atno 10167 bound_to 10162
  157.6920  131.0594  150.4567 H   0  0  0  0  0  0  0  0  0  0  0  0  # atno 10718 bound_to 10713
  154.5647  135.2823  155.0885 H   0  0  0  0  0  0  0  0  0  0  0  0  # atno 10763 bound_to 10752
  154.2280  135.6379  153.5170 H   0  0  0  0  0  0  0  0  0  0  0  0  # atno 10764 bound_to 10752
  153.0039  135.5530  154.6252 H   0  0  0  0  0  0  0  0  0  0  0  0  # atno 10765 bound_to 10752
  140.9239  134.1408  157.4291 H   0  0  0  0  0  0  0  0  0  0  0  0  # atno 11005 bound_to 11000
  145.4929  139.1487  143.3700 LP  0  0  0  0  0  0  0  0  0  0  0  0  # atno 17320 bound_to 7965
  146.2598  140.5067  142.8858 LP  0  0  0  0  0  0  0  0  0  0  0  0  # atno 17321 bound_to 7965
  140.7789  143.4892  150.9916 LP  0  0  0  0  0  0  0  0  0  0  0  0  # atno 17342 bound_to 10162
  139.8580  143.7351  152.3175 LP  0  0  0  0  0  0  0  0  0  0  0  0  # atno 17343 bound_to 10162
  156.4914  130.4096  149.6404 LP  0  0  0  0  0  0  0  0  0  0  0  0  # atno 17370 bound_to 10713
  156.3413  130.7383  151.2329 LP  0  0  0  0  0  0  0  0  0  0  0  0  # atno 17371 bound_to 10713
  139.8781  134.9981  156.5883 LP  0  0  0  0  0  0  0  0  0  0  0  0  # atno 17394 bound_to 11000
  140.7952  133.8550  155.8679 LP  0  0  0  0  0  0  0  0  0  0  0  0  # atno 17395 bound_to 11000

$$$$
