AV-unprocessed.smi:680|AV-procd|sdf|3324|dock7
  -GOLD-   22720 0293D 1   1.00000     0.00000
 Structure written by MMmdl.
 32 33  0  0  0  0  0  0  0  0  1 V2000
  149.9126  142.0644  155.3588 C   0  0  0  0  0  0  0  0  0  0  0  0
  149.6908  140.7485  154.6735 C   0  0  0  0  0  0  0  0  0  0  0  0
  148.4686  140.1942  154.2013 C   0  0  0  0  0  0  0  0  0  0  0  0
  148.8636  138.9932  153.6750 C   0  0  0  0  0  0  0  0  0  0  0  0
  148.0997  138.0362  153.0866 N   0  0  0  0  0  0  0  0  0  0  0  0
  146.7596  137.9572  153.0044 C   0  0  0  0  0  0  0  0  0  0  0  0
  145.9661  138.7744  153.4714 O   0  0  0  0  0  0  0  0  0  0  0  0
  146.3829  136.8596  152.3321 N   0  0  0  0  0  0  0  0  0  0  0  0
  145.0053  136.4740  152.0355 C   0  0  0  0  0  0  0  0  0  0  0  0
  144.9208  135.0376  151.4844 C   0  0  1  0  0  0  0  0  0  0  0  0
  146.0067  134.1434  152.1100 C   0  0  0  0  0  0  0  0  0  0  0  0
  146.1833  132.5610  151.2384 S   0  0  0  0  0  0  0  0  0  0  0  0
  144.5298  131.8685  151.5109 C   0  0  0  0  0  0  0  0  0  0  0  0
  143.4343  132.7485  150.8973 C   0  0  0  0  0  0  0  0  0  0  0  0
  143.2674  134.3294  151.7712 S   0  0  0  0  0  0  0  0  0  0  0  0
  150.2002  138.8143  153.8091 O   0  0  0  0  0  0  0  0  0  0  0  0
  150.7205  139.9459  154.4481 N   0  0  0  0  0  0  0  0  0  0  0  0
  148.9762  142.6110  155.4729 H   0  0  0  0  0  0  0  0  0  0  0  0
  150.5971  142.6941  154.7898 H   0  0  0  0  0  0  0  0  0  0  0  0
  150.3364  141.9227  156.3532 H   0  0  0  0  0  0  0  0  0  0  0  0
  147.4789  140.6220  154.2523 H   0  0  0  0  0  0  0  0  0  0  0  0
  148.6154  137.2918  152.6409 H   0  0  0  0  0  0  0  0  0  0  0  0
  147.1065  136.2469  151.9851 H   0  0  0  0  0  0  0  0  0  0  0  0
  144.4460  136.5439  152.9688 H   0  0  0  0  0  0  0  0  0  0  0  0
  144.5280  137.1707  151.3442 H   0  0  0  0  0  0  0  0  0  0  0  0
  145.0834  135.0770  150.4063 H   0  0  0  0  0  0  0  0  0  0  0  0
  146.9743  134.6440  152.0671 H   0  0  0  0  0  0  0  0  0  0  0  0
  145.7955  133.9569  153.1637 H   0  0  0  0  0  0  0  0  0  0  0  0
  144.5007  130.8765  151.0600 H   0  0  0  0  0  0  0  0  0  0  0  0
  144.3634  131.7363  152.5804 H   0  0  0  0  0  0  0  0  0  0  0  0
  143.6350  132.9358  149.8420 H   0  0  0  0  0  0  0  0  0  0  0  0
  142.4760  132.2318  150.9508 H   0  0  0  0  0  0  0  0  0  0  0  0
  1  2  1  0  0  0  0
  1 18  1  0  0  0  0
  1 19  1  0  0  0  0
  1 20  1  0  0  0  0
  2 17  2  0  0  0  0
  2  3  1  0  0  0  0
  3  4  2  0  0  0  0
  3 21  1  0  0  0  0
  4  5  1  0  0  0  0
  4 16  1  0  0  0  0
  5  6  1  0  0  0  0
  5 22  1  0  0  0  0
  6  7  2  0  0  0  0
  6  8  1  0  0  0  0
  8  9  1  0  0  0  0
  8 23  1  0  0  0  0
  9 10  1  0  0  0  0
  9 24  1  0  0  0  0
  9 25  1  0  0  0  0
 10 15  1  0  0  0  0
 10 11  1  0  0  0  0
 10 26  1  0  0  0  0
 11 12  1  0  0  0  0
 11 27  1  0  0  0  0
 11 28  1  0  0  0  0
 12 13  1  0  0  0  0
 13 14  1  0  0  0  0
 13 29  1  0  0  0  0
 13 30  1  0  0  0  0
 14 15  1  0  0  0  0
 14 31  1  0  0  0  0
 14 32  1  0  0  0  0
 16 17  1  0  0  0  0
M  END
> <s_m_source_file>
AV-unprocessed.smi

> <i_m_source_file_index>
680

> <i_lp_mmshare_version>
43012

> <i_f3d_flags>
0

> <s_epik_input>
W0NIM11jMVtjSF1jKG9uMSlbTkhdQyg9TylbTkhdW0NIMl1bQ0BASF0yW0NIMl1TW0NIMl1bQ0gyXVMy

> <s_epik_cmdline>
J2VwaWtfcHl0aG9uJywgJy1waCcsICc3LjAnLCAnLXRuJywgJzgnLCAnLW1hJywgJzIwMCcsICctbWV0YWxfYmluZGluZycsICctaW1hZScsICc8aW5maWxlLm1hZT4nLCAnLW9tYWUnLCAnPG91dGZpbGUubWFlPic=

> <r_epik_Ionization_Penalty>
0.000554698

> <r_epik_Ionization_Penalty_Charging>
0

> <r_epik_Ionization_Penalty_Neutral>
0.000554698

> <r_epik_State_Penalty>
0.000333438

> <r_epik_Charging_Adjusted_Penalty>
0.000333438

> <i_epik_Tot_Q>
0

> <i_epik_Tot_abs_Q>
0

> <r_epik_Metal_State_Penalty>
-0

> <b_epik_Metal_Only>
0

> <s_lp_Force_Field>
OPLS_2005

> <r_lp_Energy>
4.32293

> <b_lp_Chiralities_Consistent>
1

> <s_lp_Variant>
AV-unprocessed.smi:680-2

> <Gold.Version>
5.8.1

> <Gold.Id.Protein>
6NUR|6NUR_protein|mol2

> <Gold.PLP.Fitness>
35.8875

> <Gold.PLP.PLP>
-27.7105

> <Gold.PLP.part.hbond>
-3.2760

> <Gold.PLP.part.metal>
0.0000

> <Gold.PLP.part.buried>
-2.9235

> <Gold.PLP.part.nonpolar>
-22.2085

> <Gold.PLP.part.repulsive>
0.4681

> <Gold.PLP.ligand.clash>
0.0000

> <Gold.PLP.ligand.torsion>
0.3530

> <Gold.PLP.Chemscore.Hbond>
2.9600

> <Gold.PLP.Chemscore.CHOScore>
0.0000

> <Gold.PLP.Chemscore.Metal>
0.0000

> <Gold.Chemscore.Hbonds>
donor molecule, donor type, donor heavy atom, donor atom, acceptor molecule, acceptor atom, score
      L1  H     5    22       P1  7948  0.54
      L1  H     8    23       P1  7948  0.78
      P1  H  7989  7998       L1    17  1.00

> <Gold.PLP.Chemscore.Internal.Correction>
0.0029

> <Gold.Rescore>
     Score         DG    S(hbond)    S(metal)    S(lipo)     H(rot)  DE(clash)    DE(int)     intcor
     14.85     -16.35       2.02        0.00      62.78       1.26       0.10       1.41       ----

> <Gold.Chemscore.Fitness>
14.8519

> <Gold.Chemscore.DG>
-16.3525

> <Gold.Chemscore.ZeroCoef>
-5.4800

> <Gold.Chemscore.Hbond>
2.0210

> <Gold.Chemscore.Metal>
0.0000

> <Gold.Chemscore.Lipo>
62.7811

> <Gold.Chemscore.Internal_Hbond>
0.0000

> <Gold.Chemscore.DEClash>
0.0956

> <Gold.Chemscore.DEInternal>
1.4050

> <Gold.Chemscore.Rot>
1.2590

> <Gold.Chemscore.Internal.Correction>
   9.000000E+99

> <Gold.Chemscore.Hbonds>
donor molecule, donor type, donor heavy atom, donor atom, acceptor molecule, acceptor atom, score
      L1  H     5    22       P1  7948  0.52
      L1  H     8    23       P1  7948  0.78
      P1  H  7989  7998       L1    17  0.25

> <Gold.Chemscore.Hbond.Weighted>
-6.7503

> <Gold.Chemscore.Metal.Weighted>
-0.0000

> <Gold.Chemscore.Lipo.Weighted>
-7.3454

> <Gold.Chemscore.Internal_Hbond.Weighted>
0.0000

> <Gold.Chemscore.DEClash.Weighted>
0.0956

> <Gold.Chemscore.DEInternal.Weighted>
1.4050

> <Gold.Chemscore.Rot.Weighted>
3.2232

> <Gold.Chemscore.Internal.Correction.Weighted>
   9.000000E+99

> <Gold.Protein.RotatedTorsions>
[ 6907 6896 6895 6894 ] final  120.63 input  -60.11 | X-H torsion
[ 7974 7965 7964 7962 ] final  172.21 input  175.53 | X-H torsion
[ 8008 7997 7996 7995 ] final -135.46 input   59.86 | X-H torsion
[ 10167 10162 10161 10158 ] final  161.21 input  -65.29 | X-H torsion
[ 10718 10713 10712 10709 ] final  -40.85 input   66.30 | X-H torsion
[ 10763 10752 10751 10750 ] final -126.72 input  -60.55 | X-H torsion
[ 11005 11000 10999 10996 ] final  -32.15 input  -57.11 | X-H torsion

> <Gold.Protein.ActiveResidues>
 VAL166  LYS551  ARG553  GLY616  TRP617  ASP618  TYR619  PRO620  LYS621  CYS622 
 ASP623  PHE694  ASN695  SER759  ASP760  ASP761  ALA762  ILE779  LEU786  VAL792 
 PHE793  MET794  SER795  GLU796  ALA797  LYS798  CYS799  TRP800  GLU811  SER814 

> <Gold.Protein.RotatedAtoms>
  152.4383  133.7401  159.6635 H   0  0  0  0  0  0  0  0  0  0  0  0  # atno 6907 bound_to 6896
  150.8270  133.8145  159.3120 H   0  0  0  0  0  0  0  0  0  0  0  0  # atno 6908 bound_to 6896
  151.5810  135.1061  160.0069 H   0  0  0  0  0  0  0  0  0  0  0  0  # atno 6909 bound_to 6896
  144.7274  139.9464  143.6430 H   0  0  0  0  0  0  0  0  0  0  0  0  # atno 7974 bound_to 7965
  155.3790  140.0493  157.3044 H   0  0  0  0  0  0  0  0  0  0  0  0  # atno 8008 bound_to 7997
  154.5092  140.2185  155.9152 H   0  0  0  0  0  0  0  0  0  0  0  0  # atno 8009 bound_to 7997
  156.1562  140.3126  155.8735 H   0  0  0  0  0  0  0  0  0  0  0  0  # atno 8010 bound_to 7997
  139.4847  144.4559  151.8769 H   0  0  0  0  0  0  0  0  0  0  0  0  # atno 10167 bound_to 10162
  156.2768  130.4212  149.8379 H   0  0  0  0  0  0  0  0  0  0  0  0  # atno 10718 bound_to 10713
  154.8747  135.3986  154.3476 H   0  0  0  0  0  0  0  0  0  0  0  0  # atno 10763 bound_to 10752
  153.4267  135.7024  153.6263 H   0  0  0  0  0  0  0  0  0  0  0  0  # atno 10764 bound_to 10752
  153.4903  135.3750  155.2458 H   0  0  0  0  0  0  0  0  0  0  0  0  # atno 10765 bound_to 10752
  140.9528  133.7210  156.1247 H   0  0  0  0  0  0  0  0  0  0  0  0  # atno 11005 bound_to 11000
  146.0745  139.3733  143.0502 LP  0  0  0  0  0  0  0  0  0  0  0  0  # atno 17320 bound_to 7965
  145.7924  140.9808  143.1042 LP  0  0  0  0  0  0  0  0  0  0  0  0  # atno 17321 bound_to 7965
  140.4018  144.2483  150.5892 LP  0  0  0  0  0  0  0  0  0  0  0  0  # atno 17342 bound_to 10162
  140.5049  143.2307  151.8622 LP  0  0  0  0  0  0  0  0  0  0  0  0  # atno 17343 bound_to 10162
  156.5840  130.8478  151.3390 LP  0  0  0  0  0  0  0  0  0  0  0  0  # atno 17370 bound_to 10713
  157.7302  130.9682  150.1821 LP  0  0  0  0  0  0  0  0  0  0  0  0  # atno 17371 bound_to 10713
  140.7578  134.3973  157.5531 LP  0  0  0  0  0  0  0  0  0  0  0  0  # atno 17394 bound_to 11000
  139.8853  134.8942  156.2653 LP  0  0  0  0  0  0  0  0  0  0  0  0  # atno 17395 bound_to 11000

$$$$
