AV-unprocessed.smi:2719|AV-procd|sdf|10495|dock1
  -GOLD-   2272014543D 1   1.00000     0.00000
 Structure written by MMmdl.
 21 21  0  0  0  0  0  0  0  0  3 V2000
  152.1262  140.5937  159.3151 C   0  0  0  0  0  0  0  0  0  0  0  0
  152.0088  142.0121  158.7867 C   0  0  0  0  0  0  0  0  0  0  0  0
  152.7491  143.0456  159.4038 C   0  0  0  0  0  0  0  0  0  0  0  0
  152.6510  144.3640  158.9155 C   0  0  0  0  0  0  0  0  0  0  0  0
  151.8126  144.6235  157.8147 C   0  0  0  0  0  0  0  0  0  0  0  0
  151.1176  143.6141  157.2502 N   0  3  0  0  0  0  0  0  0  0  0  0
  151.1759  142.3306  157.6819 C   0  0  0  0  0  0  0  0  0  0  0  0
  150.3357  141.2979  156.9320 C   0  0  1  0  0  0  0  0  0  0  0  0
  149.3036  141.8846  156.1588 O   0  0  0  0  0  0  0  0  0  0  0  0
  151.2898  140.5022  156.0300 C   0  0  0  0  0  0  0  0  0  0  0  0
  152.3275  140.0522  156.5633 O   0  0  0  0  0  0  0  0  0  0  0  0
  150.9821  140.3744  154.8233 O   0  5  0  0  0  0  0  0  0  0  0  0
  152.8774  140.5241  160.1024 H   0  0  0  0  0  0  0  0  0  0  0  0
  152.4158  139.9089  158.5179 H   0  0  0  0  0  0  0  0  0  0  0  0
  151.1740  140.2619  159.7295 H   0  0  0  0  0  0  0  0  0  0  0  0
  153.3916  142.8327  160.2459 H   0  0  0  0  0  0  0  0  0  0  0  0
  153.2135  145.1625  159.3765 H   0  0  0  0  0  0  0  0  0  0  0  0
  151.6786  145.5985  157.3696 H   0  0  0  0  0  0  0  0  0  0  0  0
  149.8529  140.6161  157.6318 H   0  0  0  0  0  0  0  0  0  0  0  0
  149.4477  142.8173  156.1257 H   0  0  0  0  0  0  0  0  0  0  0  0
  150.5213  143.8201  156.4477 H   0  0  0  0  0  0  0  0  0  0  0  0
  1  2  1  0  0  0  0
  1 13  1  0  0  0  0
  1 14  1  0  0  0  0
  1 15  1  0  0  0  0
  2  7  1  0  0  0  0
  2  3  2  0  0  0  0
  3  4  1  0  0  0  0
  3 16  1  0  0  0  0
  4  5  2  0  0  0  0
  4 17  1  0  0  0  0
  5  6  1  0  0  0  0
  5 18  1  0  0  0  0
  6  7  2  0  0  0  0
  6 21  1  0  0  0  0
  7  8  1  0  0  0  0
  8  9  1  0  0  0  0
  8 10  1  0  0  0  0
  8 19  1  0  0  0  0
  9 20  1  0  0  0  0
 10 11  2  0  0  0  0
 10 12  1  0  0  0  0
M  CHG  1   6   1
M  CHG  1  12  -1
M  END
> <s_m_source_file>
AV-unprocessed.smi

> <i_m_source_file_index>
2719

> <i_lp_mmshare_version>
43012

> <i_f3d_flags>
0

> <s_epik_input>
W0NIM11jMVtjSF1bY0hdW2NIXW5jMVtDQEhdKFtPSF0pQyg9TylbT0hd

> <s_epik_cmdline>
J2VwaWtfcHl0aG9uJywgJy1waCcsICc3LjAnLCAnLXRuJywgJzgnLCAnLW1hJywgJzIwMCcsICctbWV0YWxfYmluZGluZycsICctaW1hZScsICc8aW5maWxlLm1hZT4nLCAnLW9tYWUnLCAnPG91dGZpbGUubWFlPic=

> <r_epik_Ionization_Penalty>
0.143401

> <r_epik_Ionization_Penalty_Charging>
0.1434

> <r_epik_Ionization_Penalty_Neutral>
5.11682e-08

> <r_epik_State_Penalty>
0.132703

> <r_epik_Charging_Adjusted_Penalty>
0.276103

> <i_epik_Tot_Q>
0

> <i_epik_Tot_abs_Q>
2

> <r_epik_Metal_State_Penalty>
3.27621

> <b_epik_Metal_Only>
0

> <s_lp_Force_Field>
OPLS_2005

> <r_lp_Energy>
8.63444

> <b_lp_Chiralities_Consistent>
1

> <s_lp_Variant>
AV-unprocessed.smi:2719-2

> <Gold.Version>
5.8.1

> <Gold.Id.Protein>
6NUR|6NUR_protein|mol2

> <Gold.PLP.Fitness>
44.8050

> <Gold.PLP.PLP>
-28.6099

> <Gold.PLP.part.hbond>
-3.8800

> <Gold.PLP.part.metal>
0.0000

> <Gold.PLP.part.buried>
-3.1774

> <Gold.PLP.part.nonpolar>
-21.4315

> <Gold.PLP.part.repulsive>
0.0754

> <Gold.PLP.ligand.clash>
0.5920

> <Gold.PLP.ligand.torsion>
0.6145

> <Gold.PLP.Chemscore.Hbond>
6.0000

> <Gold.PLP.Chemscore.CHOScore>
0.0000

> <Gold.PLP.Chemscore.Metal>
0.0000

> <Gold.Chemscore.Hbonds>
donor molecule, donor type, donor heavy atom, donor atom, acceptor molecule, acceptor atom, score
      L1  H     6    21       P1  8028  1.98
      L1  H     9    20       P1  8028  0.98
      P1  H  7989  7998       L1    12  1.00
      P1  H  7997  8010       L1    11  2.00

> <Gold.PLP.Chemscore.Internal.Correction>
0.0160

> <Gold.Rescore>
     Score         DG    S(hbond)    S(metal)    S(lipo)     H(rot)  DE(clash)    DE(int)     intcor
     17.78     -21.00       3.78        0.00      70.95       2.11       0.05       3.17       ----

> <Gold.Chemscore.Fitness>
17.7844

> <Gold.Chemscore.DG>
-20.9988

> <Gold.Chemscore.ZeroCoef>
-5.4800

> <Gold.Chemscore.Hbond>
3.7814

> <Gold.Chemscore.Metal>
0.0000

> <Gold.Chemscore.Lipo>
70.9516

> <Gold.Chemscore.Internal_Hbond>
0.0000

> <Gold.Chemscore.DEClash>
0.0458

> <Gold.Chemscore.DEInternal>
3.1685

> <Gold.Chemscore.Rot>
2.1142

> <Gold.Chemscore.Internal.Correction>
   9.000000E+99

> <Gold.Chemscore.Hbonds>
donor molecule, donor type, donor heavy atom, donor atom, acceptor molecule, acceptor atom, score
      L1  H     6    21       P1  8028  0.90
      L1  H     9    20       P1  8028  0.90
      P1  H  7989  7998       L1    12  0.94
      P1  H  7997  8010       L1    11  0.92

> <Gold.Chemscore.Hbond.Weighted>
-12.6297

> <Gold.Chemscore.Metal.Weighted>
-0.0000

> <Gold.Chemscore.Lipo.Weighted>
-8.3013

> <Gold.Chemscore.Internal_Hbond.Weighted>
0.0000

> <Gold.Chemscore.DEClash.Weighted>
0.0458

> <Gold.Chemscore.DEInternal.Weighted>
3.1685

> <Gold.Chemscore.Rot.Weighted>
5.4123

> <Gold.Chemscore.Internal.Correction.Weighted>
   9.000000E+99

> <Gold.Protein.RotatedTorsions>
[ 6907 6896 6895 6894 ] final  -78.25 input  -60.11 | X-H torsion
[ 7974 7965 7964 7962 ] final  -93.84 input  175.53 | X-H torsion
[ 8008 7997 7996 7995 ] final   80.23 input   59.86 | X-H torsion
[ 10167 10162 10161 10158 ] final  149.84 input  -65.29 | X-H torsion
[ 10718 10713 10712 10709 ] final  -63.78 input   66.30 | X-H torsion
[ 10763 10752 10751 10750 ] final   39.92 input  -60.55 | X-H torsion
[ 11005 11000 10999 10996 ] final   65.19 input  -57.11 | X-H torsion

> <Gold.Protein.ActiveResidues>
 VAL166  LYS551  ARG553  GLY616  TRP617  ASP618  TYR619  PRO620  LYS621  CYS622 
 ASP623  PHE694  ASN695  SER759  ASP760  ASP761  ALA762  ILE779  LEU786  VAL792 
 PHE793  MET794  SER795  GLU796  ALA797  LYS798  CYS799  TRP800  GLU811  SER814 

> <Gold.Protein.RotatedAtoms>
  150.6977  134.4300  159.5243 H   0  0  0  0  0  0  0  0  0  0  0  0  # atno 6907 bound_to 6896
  152.2028  134.8569  160.0515 H   0  0  0  0  0  0  0  0  0  0  0  0  # atno 6908 bound_to 6896
  151.9483  133.3623  159.4027 H   0  0  0  0  0  0  0  0  0  0  0  0  # atno 6909 bound_to 6896
  145.3812  140.9517  143.2393 H   0  0  0  0  0  0  0  0  0  0  0  0  # atno 7974 bound_to 7965
  155.8806  140.3444  155.5885 H   0  0  0  0  0  0  0  0  0  0  0  0  # atno 8008 bound_to 7997
  155.7724  140.0847  157.2120 H   0  0  0  0  0  0  0  0  0  0  0  0  # atno 8009 bound_to 7997
  154.4024  140.1516  156.2945 H   0  0  0  0  0  0  0  0  0  0  0  0  # atno 8010 bound_to 7997
  139.4857  144.5570  151.7300 H   0  0  0  0  0  0  0  0  0  0  0  0  # atno 10167 bound_to 10162
  156.0770  130.4225  150.1325 H   0  0  0  0  0  0  0  0  0  0  0  0  # atno 10718 bound_to 10713
  152.9952  135.6206  154.2542 H   0  0  0  0  0  0  0  0  0  0  0  0  # atno 10763 bound_to 10752
  154.2280  135.2793  155.2902 H   0  0  0  0  0  0  0  0  0  0  0  0  # atno 10764 bound_to 10752
  154.5473  135.5743  153.6949 H   0  0  0  0  0  0  0  0  0  0  0  0  # atno 10765 bound_to 10752
  139.9910  134.6591  156.0090 H   0  0  0  0  0  0  0  0  0  0  0  0  # atno 11005 bound_to 11000
  144.8506  139.5327  143.6858 LP  0  0  0  0  0  0  0  0  0  0  0  0  # atno 17320 bound_to 7965
  146.2841  139.6957  142.9208 LP  0  0  0  0  0  0  0  0  0  0  0  0  # atno 17321 bound_to 7965
  140.5133  144.0992  150.6001 LP  0  0  0  0  0  0  0  0  0  0  0  0  # atno 17342 bound_to 10162
  140.3925  143.2745  152.0043 LP  0  0  0  0  0  0  0  0  0  0  0  0  # atno 17343 bound_to 10162
  156.9365  130.9730  151.3524 LP  0  0  0  0  0  0  0  0  0  0  0  0  # atno 17370 bound_to 10713
  157.5869  130.8416  149.8603 LP  0  0  0  0  0  0  0  0  0  0  0  0  # atno 17371 bound_to 10713
  141.1566  133.6542  156.4181 LP  0  0  0  0  0  0  0  0  0  0  0  0  # atno 17394 bound_to 11000
  140.4908  134.6577  157.5210 LP  0  0  0  0  0  0  0  0  0  0  0  0  # atno 17395 bound_to 11000

$$$$
