#       Name:                AV-unprocessed.smi:109
#       Creating user name   scv26
#       Creation time:       Thu Mar 26 18:07:21 2020


#       File generated by GOLD software.
#

@<TRIPOS>MOLECULE
AV-unprocessed.smi:109
    71    74     1
SMALL
NO_CHARGES


@<TRIPOS>ATOM
      1 ****        -5.6486   0.4985   2.7878 O.3            1 S1                 0.0000
      2 ****        -4.2959   0.6415   2.4115 C.3            1 S1                 0.0000
      3 ****        -4.2075   1.0370   0.9290 C.3            1 S1                 0.0000
      4 ****        -2.7554   1.2465   0.4445 C.3            1 S1                 0.0000
      5 ****        -2.0392  -0.0289   0.4630 N.pl3          1 S1                 0.0000
      6 ****        -0.6917  -0.0823   0.5531 C.ar           1 S1                 0.0000
      7 ****         0.0435   1.0277   0.8224 N.ar           1 S1                 0.0000
      8 ****         1.3742   0.9434   0.9041 C.ar           1 S1                 0.0000
      9 ****         2.1518  -0.1306   0.7542 N.ar           1 S1                 0.0000
     10 ****         1.4204  -1.2504   0.4843 C.ar           1 S1                 0.0000
     11 ****         0.0027  -1.3061   0.3719 C.ar           1 S1                 0.0000
     12 ****        -0.3981  -2.6062   0.0956 N.2            1 S1                 0.0000
     13 ****         0.7211  -3.2766   0.0460 C.2            1 S1                 0.0000
     14 ****         1.8645  -2.5417   0.2690 N.pl3          1 S1                 0.0000
     15 ****         3.2761  -3.0505   0.2717 C.3            1 S1                 0.0000
     16 ****         4.1258  -2.0856  -0.2748 O.3            1 S1                 0.0000
     17 ****         5.0990  -1.6721   0.6833 C.3            1 S1                 0.0000
     18 ****         6.4031  -1.2336  -0.0057 C.3            1 S1                 0.0000
     19 ****         6.2931   0.1017  -0.4499 O.3            1 S1                 0.0000
     20 ****         5.2208  -2.8742   1.6305 C.3            1 S1                 0.0000
     21 ****         6.0941  -3.8588   1.1060 O.3            1 S1                 0.0000
     22 ****         3.7957  -3.4015   1.6806 C.3            1 S1                 0.0000
     23 ****         3.0723  -2.7845   2.7313 O.3            1 S1                 0.0000
     24 ****        -2.6461   1.9206  -0.9519 C.3            1 S1                 0.0000
     25 ****        -3.0763   3.4036  -0.9379 C.3            1 S1                 0.0000
     26 ****        -2.8513   4.0653  -2.3075 C.3            1 S1                 0.0000
     27 ****        -3.5818   3.2997  -3.4220 C.3            1 S1                 0.0000
     28 ****        -3.1668   1.8203  -3.4431 C.3            1 S1                 0.0000
     29 ****        -3.3888   1.1586  -2.0731 C.3            1 S1                 0.0000
     30 ****         3.2571  -3.9135  -0.3951 H              1 S1                 0.0000
     31 ****         4.6917  -0.8410   1.2607 H              1 S1                 0.0000
     32 ****         5.5940  -2.5824   2.6133 H              1 S1                 0.0000
     33 ****         3.7528  -4.4814   1.8296 H              1 S1                 0.0000
     34 ****        -5.6834   0.2632   3.7024 H              1 S1                 0.0000
     35 ****        -3.8309   1.4012   3.0406 H              1 S1                 0.0000
     36 ****        -3.7782  -0.2996   2.5985 H              1 S1                 0.0000
     37 ****        -4.6997   0.2767   0.3212 H              1 S1                 0.0000
     38 ****        -4.7810   1.9530   0.7928 H              1 S1                 0.0000
     39 ****        -2.2828   1.9125   1.1675 H              1 S1                 0.0000
     40 ****        -2.6025  -0.8453   0.2729 H              1 S1                 0.0000
     41 ****         1.8897   1.8676   1.1194 H              1 S1                 0.0000
     42 ****         0.7434  -4.3379  -0.1557 H              1 S1                 0.0000
     43 ****         7.2326  -1.2726   0.7011 H              1 S1                 0.0000
     44 ****         6.6529  -1.8898  -0.8398 H              1 S1                 0.0000
     45 ****         7.1040   0.3482  -0.8674 H              1 S1                 0.0000
     46 ****         6.9652  -3.4949   1.0627 H              1 S1                 0.0000
     47 ****         2.1614  -3.0208   2.6455 H              1 S1                 0.0000
     48 ****        -1.5890   1.9232  -1.2218 H              1 S1                 0.0000
     49 ****        -4.1292   3.4956  -0.6728 H              1 S1                 0.0000
     50 ****        -2.5166   3.9468  -0.1759 H              1 S1                 0.0000
     51 ****        -3.1945   5.0998  -2.2809 H              1 S1                 0.0000
     52 ****        -1.7832   4.0993  -2.5261 H              1 S1                 0.0000
     53 ****        -4.6593   3.3746  -3.2709 H              1 S1                 0.0000
     54 ****        -3.3718   3.7587  -4.3882 H              1 S1                 0.0000
     55 ****        -3.7309   1.2872  -4.2088 H              1 S1                 0.0000
     56 ****        -2.1153   1.7394  -3.7215 H              1 S1                 0.0000
     57 ****        -3.0509   0.1226  -2.1151 H              1 S1                 0.0000
     58 ****        -4.4585   1.1278  -1.8642 H              1 S1                 0.0000
     59 ****        -6.0771  -0.2190   2.2387 LP             1 S1                 0.0000
     60 ****        -6.1316   1.3621   2.6434 LP             1 S1                 0.0000
     61 ****        -0.4112   1.9077   0.9595 LP             1 S1                 0.0000
     62 ****         3.1488  -0.1165   0.8304 LP             1 S1                 0.0000
     63 ****        -1.3281  -2.9495  -0.0351 LP             1 S1                 0.0000
     64 ****         3.5849  -1.2932  -0.5566 LP             1 S1                 0.0000
     65 ****         4.5919  -2.4713  -1.0710 LP             1 S1                 0.0000
     66 ****         6.1194   0.7030   0.3301 LP             1 S1                 0.0000
     67 ****         5.5406   0.1783  -1.1039 LP             1 S1                 0.0000
     68 ****         5.7931  -4.1230   0.1898 LP             1 S1                 0.0000
     69 ****         6.0934  -4.6620   1.7017 LP             1 S1                 0.0000
     70 ****         3.1706  -1.7911   2.6711 LP             1 S1                 0.0000
     71 ****         3.4217  -3.1011   3.6132 LP             1 S1                 0.0000
@<TRIPOS>BOND
    1    1    2 1     
    2    1   34 1     
    3    2    3 1     
    4    2   35 1     
    5    2   36 1     
    6    3    4 1     
    7    3   37 1     
    8    3   38 1     
    9    4    5 1     
   10    4   24 1     
   11    4   39 1     
   12    5    6 1     
   13    5   40 1     
   14    6   11 ar    
   15    6    7 ar    
   16    7    8 ar    
   17    8    9 ar    
   18    8   41 1     
   19    9   10 ar    
   20   10   14 1     
   21   10   11 ar    
   22   11   12 1     
   23   12   13 2     
   24   13   14 1     
   25   13   42 1     
   26   14   15 1     
   27   15   30 1     
   28   15   22 1     
   29   15   16 1     
   30   16   17 1     
   31   17   31 1     
   32   17   18 1     
   33   17   20 1     
   34   18   19 1     
   35   18   43 1     
   36   18   44 1     
   37   19   45 1     
   38   20   32 1     
   39   20   21 1     
   40   20   22 1     
   41   21   46 1     
   42   22   33 1     
   43   22   23 1     
   44   23   47 1     
   45   24   29 1     
   46   24   25 1     
   47   24   48 1     
   48   25   26 1     
   49   25   49 1     
   50   25   50 1     
   51   26   27 1     
   52   26   51 1     
   53   26   52 1     
   54   27   28 1     
   55   27   53 1     
   56   27   54 1     
   57   28   29 1     
   58   28   55 1     
   59   28   56 1     
   60   29   57 1     
   61   29   58 1     
   62    1   59 1     
   63    1   60 1     
   64    7   61 1     
   65    9   62 1     
   66   12   63 1     
   67   16   64 1     
   68   16   65 1     
   69   19   66 1     
   70   19   67 1     
   71   21   68 1     
   72   21   69 1     
   73   23   70 1     
   74   23   71 1     
@<TRIPOS>SUBSTRUCTURE
      1 S1             1
@<TRIPOS>SET
LONE_PAIRS      STATIC     ATOMS    <user>   **** ""
13 59 60 61 62 63 64 65 66 67 68 69 70 71
DONOR_HYDROGENS      STATIC     ATOMS    <user>   **** ""
5 34 40 45 46 47
ATOM$BLUE        STATIC     ATOMS    COLORGROUP SYSTEM
13 59 60 61 62 63 64 65 66 67 68 69 70 71
ATOM$RED        STATIC     ATOMS    COLORGROUP SYSTEM
5 34 40 45 46 47
