AV-unprocessed.smi:1261|AV-procd|sdf|5302|dock2
  -GOLD-   22720 4423D 1   1.00000     0.00000
 Structure written by MMmdl.
 49 50  0  0  0  0  0  0  0  0  3 V2000
  145.9114  131.7975  150.1948 C   0  0  0  0  0  0  0  0  0  0  0  0
  146.2417  133.1937  150.7408 C   0  0  1  0  0  0  0  0  0  0  0  0
  145.0391  134.1441  150.6175 C   0  0  0  0  0  0  0  0  0  0  0  0
  145.3842  135.5306  151.1853 C   0  0  1  0  0  0  0  0  0  0  0  0
  144.1887  136.4890  151.0890 C   0  0  0  0  0  0  0  0  0  0  0  0
  145.8885  135.4004  152.6356 C   0  0  0  0  0  0  0  0  0  0  0  0
  147.0523  134.4806  152.7270 N   0  3  1  0  0  0  0  0  0  0  0  0
  147.6368  134.4550  154.0921 C   0  0  0  0  0  0  0  0  0  0  0  0
  148.6962  133.3525  154.2625 C   0  0  0  0  0  0  0  0  0  0  0  0
  149.3063  133.3470  155.6734 C   0  0  0  0  0  0  0  0  0  0  0  0
  148.2842  133.1852  156.6996 N   0  0  0  0  0  0  0  0  0  0  0  0
  148.5242  132.9316  157.9951 C   0  0  0  0  0  0  0  0  0  0  0  0
  149.6572  132.8345  158.4678 O   0  0  0  0  0  0  0  0  0  0  0  0
  147.2936  132.7850  158.8966 C   0  0  0  0  0  0  0  0  0  0  0  0
  147.4194  133.5775  160.1261 N   0  0  0  0  0  0  0  0  0  0  0  0
  147.6233  135.0033  159.8822 N   0  5  0  0  0  0  0  0  0  0  0  0
  147.7303  135.8482  160.9418 C   0  0  0  0  0  0  0  0  0  0  0  0
  147.8921  137.0596  160.8139 O   0  0  0  0  0  0  0  0  0  0  0  0
  147.6499  135.2830  162.2785 C   0  0  0  0  0  0  0  0  0  0  0  0
  147.4717  133.9617  162.4739 C   0  0  0  0  0  0  0  0  0  0  0  0
  147.3447  133.0197  161.3682 C   0  0  0  0  0  0  0  0  0  0  0  0
  147.1805  131.8121  161.5412 O   0  0  0  0  0  0  0  0  0  0  0  0
  146.7214  133.1284  152.2036 C   0  0  0  0  0  0  0  0  0  0  0  0
  145.1005  131.3330  150.7566 H   0  0  0  0  0  0  0  0  0  0  0  0
  146.7773  131.1374  150.2531 H   0  0  0  0  0  0  0  0  0  0  0  0
  145.6063  131.8467  149.1491 H   0  0  0  0  0  0  0  0  0  0  0  0
  147.0553  133.5974  150.1361 H   0  0  0  0  0  0  0  0  0  0  0  0
  144.7409  134.2338  149.5720 H   0  0  0  0  0  0  0  0  0  0  0  0
  144.1825  133.7282  151.1504 H   0  0  0  0  0  0  0  0  0  0  0  0
  146.1913  135.9516  150.5835 H   0  0  0  0  0  0  0  0  0  0  0  0
  143.3400  136.1246  151.6687 H   0  0  0  0  0  0  0  0  0  0  0  0
  143.8607  136.6045  150.0555 H   0  0  0  0  0  0  0  0  0  0  0  0
  144.4472  137.4797  151.4640 H   0  0  0  0  0  0  0  0  0  0  0  0
  146.1753  136.3869  153.0026 H   0  0  0  0  0  0  0  0  0  0  0  0
  145.0893  135.0404  153.2858 H   0  0  0  0  0  0  0  0  0  0  0  0
  148.1178  135.4139  154.2902 H   0  0  0  0  0  0  0  0  0  0  0  0
  146.8444  134.3494  154.8348 H   0  0  0  0  0  0  0  0  0  0  0  0
  148.2575  132.3751  154.0629 H   0  0  0  0  0  0  0  0  0  0  0  0
  149.4898  133.4924  153.5274 H   0  0  0  0  0  0  0  0  0  0  0  0
  150.0136  132.5232  155.7713 H   0  0  0  0  0  0  0  0  0  0  0  0
  149.8717  134.2636  155.8505 H   0  0  0  0  0  0  0  0  0  0  0  0
  147.3196  133.2336  156.4028 H   0  0  0  0  0  0  0  0  0  0  0  0
  146.4048  133.0853  158.3391 H   0  0  0  0  0  0  0  0  0  0  0  0
  147.1397  131.7308  159.1353 H   0  0  0  0  0  0  0  0  0  0  0  0
  147.7363  135.9368  163.1338 H   0  0  0  0  0  0  0  0  0  0  0  0
  147.4190  133.5857  163.4847 H   0  0  0  0  0  0  0  0  0  0  0  0
  145.9550  132.6731  152.8333 H   0  0  0  0  0  0  0  0  0  0  0  0
  147.5962  132.4816  152.2569 H   0  0  0  0  0  0  0  0  0  0  0  0
  147.7625  134.8657  152.1207 H   0  0  0  0  0  0  0  0  0  0  0  0
  1  2  1  0  0  0  0
  1 24  1  0  0  0  0
  1 25  1  0  0  0  0
  1 26  1  0  0  0  0
  2 23  1  0  0  0  0
  2  3  1  0  0  0  0
  2 27  1  0  0  0  0
  3  4  1  0  0  0  0
  3 28  1  0  0  0  0
  3 29  1  0  0  0  0
  4  5  1  0  0  0  0
  4  6  1  0  0  0  0
  4 30  1  0  0  0  0
  5 31  1  0  0  0  0
  5 32  1  0  0  0  0
  5 33  1  0  0  0  0
  6  7  1  0  0  0  0
  6 34  1  0  0  0  0
  6 35  1  0  0  0  0
  7  8  1  0  0  0  0
  7 23  1  0  0  0  0
  7 49  1  0  0  0  0
  8  9  1  0  0  0  0
  8 36  1  0  0  0  0
  8 37  1  0  0  0  0
  9 10  1  0  0  0  0
  9 38  1  0  0  0  0
  9 39  1  0  0  0  0
 10 11  1  0  0  0  0
 10 40  1  0  0  0  0
 10 41  1  0  0  0  0
 11 12  1  0  0  0  0
 11 42  1  0  0  0  0
 12 13  2  0  0  0  0
 12 14  1  0  0  0  0
 14 43  1  0  0  0  0
 14 44  1  0  0  0  0
 14 15  1  0  0  0  0
 15 16  1  0  0  0  0
 15 21  1  0  0  0  0
 16 17  1  0  0  0  0
 17 18  2  0  0  0  0
 17 19  1  0  0  0  0
 19 45  1  0  0  0  0
 19 20  2  0  0  0  0
 20 46  1  0  0  0  0
 20 21  1  0  0  0  0
 21 22  2  0  0  0  0
 23 47  1  0  0  0  0
 23 48  1  0  0  0  0
M  CHG  1   7   1
M  CHG  1  16  -1
M  END
> <s_m_source_file>
AV-unprocessed.smi

> <i_m_source_file_index>
1261

> <i_lp_mmshare_version>
43012

> <i_f3d_flags>
0

> <s_epik_input>
W0NIM11bQ0BASF0xW0NIMl1bQ0BASF0oW0NIM10pW0NIMl1OKFtDSDJdMSlbQ0gyXVtDSDJdW0NIMl1bTkhdQyg9TylbQ0gyXW4yW25IXWMoPU8pW2NIXVtjSF1jMj1P

> <s_epik_cmdline>
J2VwaWtfcHl0aG9uJywgJy1waCcsICc3LjAnLCAnLXRuJywgJzgnLCAnLW1hJywgJzIwMCcsICctbWV0YWxfYmluZGluZycsICctaW1hZScsICc8aW5maWxlLm1hZT4nLCAnLW9tYWUnLCAnPG91dGZpbGUubWFlPic=

> <r_lp_tautomer_probability>
1

> <r_epik_Ionization_Penalty>
0.0955723

> <r_epik_Ionization_Penalty_Charging>
0.0955723

> <r_epik_Ionization_Penalty_Neutral>
2.68632e-08

> <r_epik_State_Penalty>
0.0334406

> <r_epik_Charging_Adjusted_Penalty>
0.129013

> <i_epik_Tot_Q>
0

> <i_epik_Tot_abs_Q>
2

> <r_epik_Metal_State_Penalty>
0.0334406

> <b_epik_Metal_Only>
0

> <s_lp_Force_Field>
OPLS_2005

> <r_lp_Energy>
31.5278

> <b_lp_Chiralities_Consistent>
1

> <s_lp_Variant>
AV-unprocessed.smi:1261-2

> <Gold.Version>
5.8.1

> <Gold.Id.Protein>
6NUR|6NUR_protein|mol2

> <Gold.PLP.Fitness>
49.1684

> <Gold.PLP.PLP>
-35.5917

> <Gold.PLP.part.hbond>
-4.0000

> <Gold.PLP.part.metal>
0.0000

> <Gold.PLP.part.buried>
1.8823

> <Gold.PLP.part.nonpolar>
-32.8238

> <Gold.PLP.part.repulsive>
0.0218

> <Gold.PLP.ligand.clash>
0.0000

> <Gold.PLP.ligand.torsion>
0.2893

> <Gold.PLP.Chemscore.Hbond>
4.6800

> <Gold.PLP.Chemscore.CHOScore>
0.0000

> <Gold.PLP.Chemscore.Metal>
0.0000

> <Gold.Chemscore.Hbonds>
donor molecule, donor type, donor heavy atom, donor atom, acceptor molecule, acceptor atom, score
      L1  H     7    49       P1  7948  1.92
      P1  H  6896  6907       L1    13  1.00
      P1  H  6931  6943       L1    18  0.91
      P1  H  6934  6947       L1    18  0.72

> <Gold.PLP.Chemscore.Internal.Correction>
0.1153

> <Gold.Rescore>
     Score         DG    S(hbond)    S(metal)    S(lipo)     H(rot)  DE(clash)    DE(int)     intcor
     18.50     -20.29       3.65        0.00      76.85       2.49       1.42       0.37       ----

> <Gold.Chemscore.Fitness>
18.4950

> <Gold.Chemscore.DG>
-20.2880

> <Gold.Chemscore.ZeroCoef>
-5.4800

> <Gold.Chemscore.Hbond>
3.6529

> <Gold.Chemscore.Metal>
0.0000

> <Gold.Chemscore.Lipo>
76.8495

> <Gold.Chemscore.Internal_Hbond>
0.0000

> <Gold.Chemscore.DEClash>
1.4218

> <Gold.Chemscore.DEInternal>
0.3712

> <Gold.Chemscore.Rot>
2.4938

> <Gold.Chemscore.Internal.Correction>
   9.000000E+99

> <Gold.Chemscore.Hbonds>
donor molecule, donor type, donor heavy atom, donor atom, acceptor molecule, acceptor atom, score
      L1  H     7    49       P1  7948  0.69
      P1  H  6896  6907       L1    13  0.98
      P1  H  6931  6943       L1    18  0.88
      P1  H  6934  6947       L1    18  0.70

> <Gold.Chemscore.Hbond.Weighted>
-12.2007

> <Gold.Chemscore.Metal.Weighted>
-0.0000

> <Gold.Chemscore.Lipo.Weighted>
-8.9914

> <Gold.Chemscore.Internal_Hbond.Weighted>
0.0000

> <Gold.Chemscore.DEClash.Weighted>
1.4218

> <Gold.Chemscore.DEInternal.Weighted>
0.3712

> <Gold.Chemscore.Rot.Weighted>
6.3840

> <Gold.Chemscore.Internal.Correction.Weighted>
   9.000000E+99

> <Gold.Protein.RotatedTorsions>
[ 6907 6896 6895 6894 ] final -140.25 input  -60.11 | X-H torsion
[ 7974 7965 7964 7962 ] final   13.18 input  175.53 | X-H torsion
[ 8008 7997 7996 7995 ] final  170.25 input   59.86 | X-H torsion
[ 10167 10162 10161 10158 ] final  -43.06 input  -65.29 | X-H torsion
[ 10718 10713 10712 10709 ] final   44.27 input   66.30 | X-H torsion
[ 10763 10752 10751 10750 ] final   86.53 input  -60.55 | X-H torsion
[ 11005 11000 10999 10996 ] final -129.53 input  -57.11 | X-H torsion

> <Gold.Protein.ActiveResidues>
 VAL166  LYS551  ARG553  GLY616  TRP617  ASP618  TYR619  PRO620  LYS621  CYS622 
 ASP623  PHE694  ASN695  SER759  ASP760  ASP761  ALA762  ILE779  LEU786  VAL792 
 PHE793  MET794  SER795  GLU796  ALA797  LYS798  CYS799  TRP800  GLU811  SER814 

> <Gold.Protein.RotatedAtoms>
  151.0582  133.5566  159.2636 H   0  0  0  0  0  0  0  0  0  0  0  0  # atno 6907 bound_to 6896
  151.2551  135.0634  159.9087 H   0  0  0  0  0  0  0  0  0  0  0  0  # atno 6908 bound_to 6896
  152.5393  134.0337  159.8090 H   0  0  0  0  0  0  0  0  0  0  0  0  # atno 6909 bound_to 6896
  146.2335  139.9227  142.8508 H   0  0  0  0  0  0  0  0  0  0  0  0  # atno 7974 bound_to 7965
  156.1383  140.1543  156.8961 H   0  0  0  0  0  0  0  0  0  0  0  0  # atno 8008 bound_to 7997
  154.4965  140.0836  156.7747 H   0  0  0  0  0  0  0  0  0  0  0  0  # atno 8009 bound_to 7997
  155.4128  140.3419  155.4267 H   0  0  0  0  0  0  0  0  0  0  0  0  # atno 8010 bound_to 7997
  140.6947  143.3003  151.3298 H   0  0  0  0  0  0  0  0  0  0  0  0  # atno 10167 bound_to 10162
  157.4250  130.7991  149.7550 H   0  0  0  0  0  0  0  0  0  0  0  0  # atno 10718 bound_to 10713
  153.1579  135.4577  154.9731 H   0  0  0  0  0  0  0  0  0  0  0  0  # atno 10763 bound_to 10752
  154.7875  135.3209  154.7855 H   0  0  0  0  0  0  0  0  0  0  0  0  # atno 10764 bound_to 10752
  153.8349  135.6935  153.4864 H   0  0  0  0  0  0  0  0  0  0  0  0  # atno 10765 bound_to 10752
  140.9424  134.1176  157.4139 H   0  0  0  0  0  0  0  0  0  0  0  0  # atno 11005 bound_to 11000
  145.2121  140.9900  143.4094 LP  0  0  0  0  0  0  0  0  0  0  0  0  # atno 17320 bound_to 7965
  144.9682  139.3907  143.6322 LP  0  0  0  0  0  0  0  0  0  0  0  0  # atno 17321 bound_to 7965
  139.6389  144.0578  152.2538 LP  0  0  0  0  0  0  0  0  0  0  0  0  # atno 17342 bound_to 10162
  140.0076  144.6247  150.7675 LP  0  0  0  0  0  0  0  0  0  0  0  0  # atno 17343 bound_to 10162
  155.9893  130.3952  150.3077 LP  0  0  0  0  0  0  0  0  0  0  0  0  # atno 17370 bound_to 10713
  157.1228  131.0251  151.3002 LP  0  0  0  0  0  0  0  0  0  0  0  0  # atno 17371 bound_to 10713
  139.8824  135.0040  156.6225 LP  0  0  0  0  0  0  0  0  0  0  0  0  # atno 17394 bound_to 11000
  140.7716  133.8733  155.8496 LP  0  0  0  0  0  0  0  0  0  0  0  0  # atno 17395 bound_to 11000

$$$$
