AV-unprocessed.smi:500|AV-procd|sdf|2739|dock10
  -GOLD-   2262023193D 1   1.00000     0.00000
 Structure written by MMmdl.
 44 46  0  0  0  0  0  0  0  0  2 V2000
  152.9020  138.6665  154.8042 C   0  0  0  0  0  0  0  0  0  0  0  0
  152.3071  139.3783  156.0266 C   0  0  0  0  0  0  0  0  0  0  0  0
  151.2219  140.2074  155.6441 O   0  0  0  0  0  0  0  0  0  0  0  0
  149.9998  139.9094  156.2988 C   0  0  0  0  0  0  0  0  0  0  0  0
  150.0703  140.3906  157.7548 C   0  0  0  0  0  0  0  0  0  0  0  0
  151.0970  139.6728  158.5170 N   0  0  0  0  0  0  0  0  0  0  0  0
  151.2419  138.3406  158.8046 C   0  0  0  0  0  0  0  0  0  0  0  0
  150.2891  137.2501  158.3390 C   0  0  1  0  0  0  0  0  0  0  0  0
  150.9713  136.3261  157.3206 C   0  0  0  0  0  0  0  0  0  0  0  0
  149.7755  136.4340  159.4441 N   0  5  0  0  0  0  0  0  0  0  0  0
  148.5540  135.8298  159.4511 C   0  0  0  0  0  0  0  0  0  0  0  0
  147.9905  135.1752  158.5687 O   0  0  0  0  0  0  0  0  0  0  0  0
  147.8635  135.9886  160.7510 C   0  0  0  0  0  0  0  0  0  0  0  0
  147.2449  135.0854  161.5779 C   0  0  0  0  0  0  0  0  0  0  0  0
  146.7845  135.8125  162.7101 C   0  0  0  0  0  0  0  0  0  0  0  0
  147.1619  137.1074  162.5021 C   0  0  0  0  0  0  0  0  0  0  0  0
  147.8243  137.2299  161.3201 O   0  0  0  0  0  0  0  0  0  0  0  0
  152.3332  138.0359  159.5176 N   0  0  0  0  0  0  0  0  0  0  0  0
  152.9259  139.2602  159.7377 C   0  0  0  0  0  0  0  0  0  0  0  0
  154.1038  139.5962  160.4426 C   0  0  0  0  0  0  0  0  0  0  0  0
  154.5226  140.9396  160.5332 C   0  0  0  0  0  0  0  0  0  0  0  0
  153.7711  141.9629  159.9204 C   0  0  0  0  0  0  0  0  0  0  0  0
  152.5953  141.6471  159.2128 C   0  0  0  0  0  0  0  0  0  0  0  0
  152.1806  140.3038  159.1261 C   0  0  0  0  0  0  0  0  0  0  0  0
  153.6878  137.9736  155.1051 H   0  0  0  0  0  0  0  0  0  0  0  0
  153.3367  139.3701  154.0948 H   0  0  0  0  0  0  0  0  0  0  0  0
  152.1368  138.0941  154.2791 H   0  0  0  0  0  0  0  0  0  0  0  0
  151.9212  138.6282  156.7170 H   0  0  0  0  0  0  0  0  0  0  0  0
  153.0664  139.9428  156.5697 H   0  0  0  0  0  0  0  0  0  0  0  0
  149.1795  140.4030  155.7767 H   0  0  0  0  0  0  0  0  0  0  0  0
  149.7950  138.8387  156.2794 H   0  0  0  0  0  0  0  0  0  0  0  0
  150.2279  141.4674  157.8020 H   0  0  0  0  0  0  0  0  0  0  0  0
  149.1088  140.2188  158.2392 H   0  0  0  0  0  0  0  0  0  0  0  0
  149.4648  137.7342  157.8150 H   0  0  0  0  0  0  0  0  0  0  0  0
  151.3258  136.8924  156.4591 H   0  0  0  0  0  0  0  0  0  0  0  0
  150.2819  135.5656  156.9525 H   0  0  0  0  0  0  0  0  0  0  0  0
  151.8301  135.8148  157.7574 H   0  0  0  0  0  0  0  0  0  0  0  0
  147.1377  134.0273  161.3890 H   0  0  0  0  0  0  0  0  0  0  0  0
  146.2491  135.4349  163.5685 H   0  0  0  0  0  0  0  0  0  0  0  0
  147.0500  138.0225  163.0647 H   0  0  0  0  0  0  0  0  0  0  0  0
  154.6848  138.8177  160.9145 H   0  0  0  0  0  0  0  0  0  0  0  0
  155.4242  141.1854  161.0747 H   0  0  0  0  0  0  0  0  0  0  0  0
  154.0979  142.9896  159.9935 H   0  0  0  0  0  0  0  0  0  0  0  0
  152.0180  142.4291  158.7428 H   0  0  0  0  0  0  0  0  0  0  0  0
  1  2  1  0  0  0  0
  1 25  1  0  0  0  0
  1 26  1  0  0  0  0
  1 27  1  0  0  0  0
  2  3  1  0  0  0  0
  2 28  1  0  0  0  0
  2 29  1  0  0  0  0
  3  4  1  0  0  0  0
  4  5  1  0  0  0  0
  4 30  1  0  0  0  0
  4 31  1  0  0  0  0
  5  6  1  0  0  0  0
  5 32  1  0  0  0  0
  5 33  1  0  0  0  0
  6 24  1  0  0  0  0
  6  7  1  0  0  0  0
  7  8  1  0  0  0  0
  7 18  2  0  0  0  0
  8  9  1  0  0  0  0
  8 10  1  0  0  0  0
  8 34  1  0  0  0  0
  9 35  1  0  0  0  0
  9 36  1  0  0  0  0
  9 37  1  0  0  0  0
 10 11  1  0  0  0  0
 11 12  2  0  0  0  0
 11 13  1  0  0  0  0
 13 17  1  0  0  0  0
 13 14  2  0  0  0  0
 14 15  1  0  0  0  0
 14 38  1  0  0  0  0
 15 16  2  0  0  0  0
 15 39  1  0  0  0  0
 16 17  1  0  0  0  0
 16 40  1  0  0  0  0
 18 19  1  0  0  0  0
 19 24  2  0  0  0  0
 19 20  1  0  0  0  0
 20 21  2  0  0  0  0
 20 41  1  0  0  0  0
 21 22  1  0  0  0  0
 21 42  1  0  0  0  0
 22 23  2  0  0  0  0
 22 43  1  0  0  0  0
 23 24  1  0  0  0  0
 23 44  1  0  0  0  0
M  CHG  1  10  -1
M  END
> <s_m_source_file>
AV-unprocessed.smi

> <i_m_source_file_index>
500

> <i_lp_mmshare_version>
43012

> <i_f3d_flags>
0

> <s_epik_input>
W0NIM11bQ0gyXU9bQ0gyXVtDSDJdbihjKGMxMilbY0hdW2NIXVtjSF1bY0hdMiljKG4xKVtDQEhdKFtDSDNdKVtOSF1DKD1PKWMzW2NIXVtjSF1bY0hdbzM=

> <s_epik_cmdline>
J2VwaWtfcHl0aG9uJywgJy1waCcsICc3LjAnLCAnLXRuJywgJzgnLCAnLW1hJywgJzIwMCcsICctbWV0YWxfYmluZGluZycsICctaW1hZScsICc8aW5maWxlLm1hZT4nLCAnLW9tYWUnLCAnPG91dGZpbGUubWFlPic=

> <r_epik_Ionization_Penalty>
7.31223

> <r_epik_Ionization_Penalty_Charging>
6.43826

> <r_epik_Ionization_Penalty_Neutral>
0.873973

> <r_epik_State_Penalty>
6.5378

> <r_epik_Charging_Adjusted_Penalty>
12.9761

> <i_epik_Tot_Q>
-1

> <i_epik_Tot_abs_Q>
1

> <r_epik_Metal_State_Penalty>
2.55818

> <b_epik_Metal_Only>
1

> <s_lp_Force_Field>
OPLS_2005

> <r_lp_Energy>
16.2081

> <b_lp_Chiralities_Consistent>
1

> <s_lp_Variant>
AV-unprocessed.smi:500-6

> <Gold.Version>
5.8.1

> <Gold.Id.Protein>
6NUR|6NUR_protein|mol2

> <Gold.PLP.Fitness>
52.9683

> <Gold.PLP.PLP>
-45.5298

> <Gold.PLP.part.hbond>
-3.2393

> <Gold.PLP.part.metal>
0.0000

> <Gold.PLP.part.buried>
-5.2999

> <Gold.PLP.part.nonpolar>
-37.1180

> <Gold.PLP.part.repulsive>
0.0116

> <Gold.PLP.ligand.clash>
0.0000

> <Gold.PLP.ligand.torsion>
2.0452

> <Gold.PLP.Chemscore.Hbond>
3.7744

> <Gold.PLP.Chemscore.CHOScore>
0.0000

> <Gold.PLP.Chemscore.Metal>
0.0000

> <Gold.Chemscore.Hbonds>
donor molecule, donor type, donor heavy atom, donor atom, acceptor molecule, acceptor atom, score
      P1  H  6896  6909       L1    10  2.00
      P1  H  6931  6943       L1    17  0.79
      P1  H  6934  6947       L1    17  0.56
      P1  H  7989  7998       L1     3  0.39

> <Gold.PLP.Chemscore.Internal.Correction>
0.2057

> <Gold.Rescore>
     Score         DG    S(hbond)    S(metal)    S(lipo)     H(rot)  DE(clash)    DE(int)     intcor
     15.59     -18.81       1.44        0.00     113.14       1.84       0.01       3.20       ----

> <Gold.Chemscore.Fitness>
15.5916

> <Gold.Chemscore.DG>
-18.8053

> <Gold.Chemscore.ZeroCoef>
-5.4800

> <Gold.Chemscore.Hbond>
1.4354

> <Gold.Chemscore.Metal>
0.0000

> <Gold.Chemscore.Lipo>
113.1363

> <Gold.Chemscore.Internal_Hbond>
0.0000

> <Gold.Chemscore.DEClash>
0.0130

> <Gold.Chemscore.DEInternal>
3.2006

> <Gold.Chemscore.Rot>
1.8382

> <Gold.Chemscore.Internal.Correction>
   9.000000E+99

> <Gold.Chemscore.Hbonds>
donor molecule, donor type, donor heavy atom, donor atom, acceptor molecule, acceptor atom, score
      P1  H  6896  6909       L1    10  0.20
      P1  H  6931  6943       L1    17  0.11
      P1  H  6934  6947       L1    17  0.07
      P1  H  7989  7998       L1     3  0.20

> <Gold.Chemscore.Hbond.Weighted>
-4.7942

> <Gold.Chemscore.Metal.Weighted>
-0.0000

> <Gold.Chemscore.Lipo.Weighted>
-13.2370

> <Gold.Chemscore.Internal_Hbond.Weighted>
0.0000

> <Gold.Chemscore.DEClash.Weighted>
0.0130

> <Gold.Chemscore.DEInternal.Weighted>
3.2006

> <Gold.Chemscore.Rot.Weighted>
4.7059

> <Gold.Chemscore.Internal.Correction.Weighted>
   9.000000E+99

> <Gold.Protein.RotatedTorsions>
[ 6907 6896 6895 6894 ] final   74.57 input  -60.11 | X-H torsion
[ 7974 7965 7964 7962 ] final  -31.01 input  175.53 | X-H torsion
[ 8008 7997 7996 7995 ] final   45.49 input   59.86 | X-H torsion
[ 10167 10162 10161 10158 ] final  -53.79 input  -65.29 | X-H torsion
[ 10718 10713 10712 10709 ] final  115.82 input   66.30 | X-H torsion
[ 10763 10752 10751 10750 ] final    8.42 input  -60.55 | X-H torsion
[ 11005 11000 10999 10996 ] final  115.93 input  -57.11 | X-H torsion

> <Gold.Protein.ActiveResidues>
 VAL166  LYS551  ARG553  GLY616  TRP617  ASP618  TYR619  PRO620  LYS621  CYS622 
 ASP623  PHE694  ASN695  SER759  ASP760  ASP761  ALA762  ILE779  LEU786  VAL792 
 PHE793  MET794  SER795  GLU796  ALA797  LYS798  CYS799  TRP800  GLU811  SER814 

> <Gold.Protein.RotatedAtoms>
  152.4983  134.4251  159.9493 H   0  0  0  0  0  0  0  0  0  0  0  0  # atno 6907 bound_to 6896
  151.4226  133.3687  159.2766 H   0  0  0  0  0  0  0  0  0  0  0  0  # atno 6908 bound_to 6896
  150.9212  134.8652  159.7549 H   0  0  0  0  0  0  0  0  0  0  0  0  # atno 6909 bound_to 6896
  146.1100  140.5613  142.8782 H   0  0  0  0  0  0  0  0  0  0  0  0  # atno 7974 bound_to 7965
  155.3368  140.3406  155.4239 H   0  0  0  0  0  0  0  0  0  0  0  0  # atno 8008 bound_to 7997
  156.1833  140.1672  156.8268 H   0  0  0  0  0  0  0  0  0  0  0  0  # atno 8009 bound_to 7997
  154.5358  140.0735  156.8408 H   0  0  0  0  0  0  0  0  0  0  0  0  # atno 8010 bound_to 7997
  140.6466  143.2539  151.4843 H   0  0  0  0  0  0  0  0  0  0  0  0  # atno 10167 bound_to 10162
  157.6198  131.1017  150.7385 H   0  0  0  0  0  0  0  0  0  0  0  0  # atno 10718 bound_to 10713
  153.2253  135.6886  153.7953 H   0  0  0  0  0  0  0  0  0  0  0  0  # atno 10763 bound_to 10752
  153.7137  135.3278  155.3253 H   0  0  0  0  0  0  0  0  0  0  0  0  # atno 10764 bound_to 10752
  154.8289  135.4596  154.1116 H   0  0  0  0  0  0  0  0  0  0  0  0  # atno 10765 bound_to 10752
  139.9025  134.9591  156.7120 H   0  0  0  0  0  0  0  0  0  0  0  0  # atno 11005 bound_to 11000
  144.7503  140.5174  143.6806 LP  0  0  0  0  0  0  0  0  0  0  0  0  # atno 17320 bound_to 7965
  145.5683  139.1482  143.3303 LP  0  0  0  0  0  0  0  0  0  0  0  0  # atno 17321 bound_to 7965
  139.5677  144.2003  152.1790 LP  0  0  0  0  0  0  0  0  0  0  0  0  # atno 17342 bound_to 10162
  140.1290  144.5305  150.6814 LP  0  0  0  0  0  0  0  0  0  0  0  0  # atno 17343 bound_to 10162
  156.7744  130.4839  149.5412 LP  0  0  0  0  0  0  0  0  0  0  0  0  # atno 17370 bound_to 10713
  156.1338  130.6197  151.0372 LP  0  0  0  0  0  0  0  0  0  0  0  0  # atno 17371 bound_to 10713
  140.7068  133.9258  155.8059 LP  0  0  0  0  0  0  0  0  0  0  0  0  # atno 17394 bound_to 11000
  141.0330  134.0729  157.3992 LP  0  0  0  0  0  0  0  0  0  0  0  0  # atno 17395 bound_to 11000

$$$$
