AV-unprocessed.smi:2498|AV-procd|sdf|9830|dock3
  -GOLD-   2272013463D 1   1.00000     0.00000
 Structure written by MMmdl.
 36 36  0  0  0  0  0  0  0  0  2 V2000
  149.7067  141.4850  156.4092 C   0  0  0  0  0  0  0  0  0  0  0  0
  150.7536  141.3237  157.4749 C   0  0  0  0  0  0  0  0  0  0  0  0
  151.2201  142.4050  158.0756 N   0  0  0  0  0  0  0  0  0  0  0  0
  152.0922  141.9431  158.9954 N   0  0  0  0  0  0  0  0  0  0  0  0
  152.8166  142.8825  159.8341 C   0  0  0  0  0  0  0  0  0  0  0  0
  152.4586  144.1295  159.5288 F   0  0  0  0  0  0  0  0  0  0  0  0
  152.5779  142.6454  161.1251 F   0  0  0  0  0  0  0  0  0  0  0  0
  152.2062  140.5672  158.9451 C   0  0  0  0  0  0  0  0  0  0  0  0
  153.1256  139.8122  159.8494 C   0  0  0  0  0  0  0  0  0  0  0  0
  151.3478  140.1257  157.9735 C   0  0  0  0  0  0  0  0  0  0  0  0
  151.0759  138.7060  157.5384 C   0  0  0  0  0  0  0  0  0  0  0  0
  149.6155  138.3541  157.8210 C   0  0  0  0  0  0  0  0  0  0  0  0
  148.7279  139.1280  157.4650 O   0  0  0  0  0  0  0  0  0  0  0  0
  149.4171  137.1848  158.4575 N   0  0  0  0  0  0  0  0  0  0  0  0
  148.1939  136.4415  158.7905 C   0  0  0  0  0  0  0  0  0  0  0  0
  147.1066  136.8420  157.7695 C   0  0  0  0  0  0  0  0  0  0  0  0
  148.3482  134.8974  158.7820 C   0  0  0  0  0  0  0  0  0  0  0  0
  147.7974  136.9123  160.2095 C   0  0  0  0  0  0  0  0  0  0  0  0
  146.6798  137.4559  160.3585 O   0  0  0  0  0  0  0  0  0  0  0  0
  148.5974  136.6811  161.1442 O   0  5  0  0  0  0  0  0  0  0  0  0
  149.4842  140.5402  155.9146 H   0  0  0  0  0  0  0  0  0  0  0  0
  150.0298  142.1899  155.6428 H   0  0  0  0  0  0  0  0  0  0  0  0
  148.7746  141.8584  156.8343 H   0  0  0  0  0  0  0  0  0  0  0  0
  153.8905  142.7849  159.6747 H   0  0  0  0  0  0  0  0  0  0  0  0
  153.1728  138.7580  159.5783 H   0  0  0  0  0  0  0  0  0  0  0  0
  152.7850  139.8740  160.8829 H   0  0  0  0  0  0  0  0  0  0  0  0
  154.1374  140.2150  159.8000 H   0  0  0  0  0  0  0  0  0  0  0  0
  151.2766  138.5637  156.4763 H   0  0  0  0  0  0  0  0  0  0  0  0
  151.7230  137.9989  158.0579 H   0  0  0  0  0  0  0  0  0  0  0  0
  150.2618  136.6800  158.6837 H   0  0  0  0  0  0  0  0  0  0  0  0
  146.1393  136.4086  158.0268 H   0  0  0  0  0  0  0  0  0  0  0  0
  147.3641  136.4921  156.7694 H   0  0  0  0  0  0  0  0  0  0  0  0
  146.9792  137.9238  157.7054 H   0  0  0  0  0  0  0  0  0  0  0  0
  147.4346  134.4097  159.1247 H   0  0  0  0  0  0  0  0  0  0  0  0
  149.1584  134.5566  159.4283 H   0  0  0  0  0  0  0  0  0  0  0  0
  148.5458  134.5219  157.7777 H   0  0  0  0  0  0  0  0  0  0  0  0
  1  2  1  0  0  0  0
  1 21  1  0  0  0  0
  1 22  1  0  0  0  0
  1 23  1  0  0  0  0
  2 10  1  0  0  0  0
  2  3  2  0  0  0  0
  3  4  1  0  0  0  0
  4  5  1  0  0  0  0
  4  8  1  0  0  0  0
  5  6  1  0  0  0  0
  5  7  1  0  0  0  0
  5 24  1  0  0  0  0
  8  9  1  0  0  0  0
  8 10  2  0  0  0  0
  9 25  1  0  0  0  0
  9 26  1  0  0  0  0
  9 27  1  0  0  0  0
 10 11  1  0  0  0  0
 11 12  1  0  0  0  0
 11 28  1  0  0  0  0
 11 29  1  0  0  0  0
 12 13  2  0  0  0  0
 12 14  1  0  0  0  0
 14 15  1  0  0  0  0
 14 30  1  0  0  0  0
 15 16  1  0  0  0  0
 15 17  1  0  0  0  0
 15 18  1  0  0  0  0
 16 31  1  0  0  0  0
 16 32  1  0  0  0  0
 16 33  1  0  0  0  0
 17 34  1  0  0  0  0
 17 35  1  0  0  0  0
 17 36  1  0  0  0  0
 18 19  2  0  0  0  0
 18 20  1  0  0  0  0
M  CHG  1  20  -1
M  END
> <s_m_source_file>
AV-unprocessed.smi

> <i_m_source_file_index>
2498

> <i_lp_mmshare_version>
43012

> <i_f3d_flags>
0

> <s_epik_input>
W0NIM11jMW5uKFtDSF0oRilGKWMoW0NIM10pYzFbQ0gyXUMoPU8pW05IXUMoW0NIM10pKFtDSDNdKUMoPU8pW09IXQ==

> <s_epik_cmdline>
J2VwaWtfcHl0aG9uJywgJy1waCcsICc3LjAnLCAnLXRuJywgJzgnLCAnLW1hJywgJzIwMCcsICctbWV0YWxfYmluZGluZycsICctaW1hZScsICc8aW5maWxlLm1hZT4nLCAnLW9tYWUnLCAnPG91dGZpbGUubWFlPic=

> <r_lp_tautomer_probability>
1

> <r_epik_Ionization_Penalty>
0.000275972

> <r_epik_Ionization_Penalty_Charging>
0.000275542

> <r_epik_Ionization_Penalty_Neutral>
4.29922e-07

> <r_epik_State_Penalty>
-0

> <r_epik_Charging_Adjusted_Penalty>
0.000275542

> <i_epik_Tot_Q>
-1

> <i_epik_Tot_abs_Q>
1

> <r_epik_Metal_State_Penalty>
-0

> <b_epik_Metal_Only>
0

> <s_lp_Force_Field>
OPLS_2005

> <r_lp_Energy>
1.362

> <b_lp_Chiralities_Consistent>
1

> <s_lp_Variant>
AV-unprocessed.smi:2498-1

> <Gold.Version>
5.8.1

> <Gold.Id.Protein>
6NUR|6NUR_protein|mol2

> <Gold.PLP.Fitness>
41.6422

> <Gold.PLP.PLP>
-30.9547

> <Gold.PLP.part.hbond>
-2.0000

> <Gold.PLP.part.metal>
0.0000

> <Gold.PLP.part.buried>
-4.4872

> <Gold.PLP.part.nonpolar>
-25.1775

> <Gold.PLP.part.repulsive>
0.1936

> <Gold.PLP.ligand.clash>
0.0000

> <Gold.PLP.ligand.torsion>
0.6988

> <Gold.PLP.Chemscore.Hbond>
4.0000

> <Gold.PLP.Chemscore.CHOScore>
0.0000

> <Gold.PLP.Chemscore.Metal>
0.0000

> <Gold.Chemscore.Hbonds>
donor molecule, donor type, donor heavy atom, donor atom, acceptor molecule, acceptor atom, score
      P1  H  6931  6943       L1    20  2.00
      P1  H  6934  6947       L1    19  2.00

> <Gold.PLP.Chemscore.Internal.Correction>
0.0852

> <Gold.Rescore>
     Score         DG    S(hbond)    S(metal)    S(lipo)     H(rot)  DE(clash)    DE(int)     intcor
      8.07     -11.34       1.44        0.00      55.93       2.15       0.09       3.18       ----

> <Gold.Chemscore.Fitness>
8.0718

> <Gold.Chemscore.DG>
-11.3394

> <Gold.Chemscore.ZeroCoef>
-5.4800

> <Gold.Chemscore.Hbond>
1.4430

> <Gold.Chemscore.Metal>
0.0000

> <Gold.Chemscore.Lipo>
55.9325

> <Gold.Chemscore.Internal_Hbond>
0.0000

> <Gold.Chemscore.DEClash>
0.0897

> <Gold.Chemscore.DEInternal>
3.1779

> <Gold.Chemscore.Rot>
2.1501

> <Gold.Chemscore.Internal.Correction>
   9.000000E+99

> <Gold.Chemscore.Hbonds>
donor molecule, donor type, donor heavy atom, donor atom, acceptor molecule, acceptor atom, score
      P1  H  6931  6943       L1    20  0.70
      P1  H  6934  6947       L1    19  0.30

> <Gold.Chemscore.Hbond.Weighted>
-4.8196

> <Gold.Chemscore.Metal.Weighted>
-0.0000

> <Gold.Chemscore.Lipo.Weighted>
-6.5441

> <Gold.Chemscore.Internal_Hbond.Weighted>
0.0000

> <Gold.Chemscore.DEClash.Weighted>
0.0897

> <Gold.Chemscore.DEInternal.Weighted>
3.1779

> <Gold.Chemscore.Rot.Weighted>
5.5043

> <Gold.Chemscore.Internal.Correction.Weighted>
   9.000000E+99

> <Gold.Protein.RotatedTorsions>
[ 6907 6896 6895 6894 ] final -175.50 input  -60.11 | X-H torsion
[ 7974 7965 7964 7962 ] final -148.86 input  175.53 | X-H torsion
[ 8008 7997 7996 7995 ] final  -66.95 input   59.86 | X-H torsion
[ 10167 10162 10161 10158 ] final   20.07 input  -65.29 | X-H torsion
[ 10718 10713 10712 10709 ] final   71.65 input   66.30 | X-H torsion
[ 10763 10752 10751 10750 ] final  -57.77 input  -60.55 | X-H torsion
[ 11005 11000 10999 10996 ] final -150.22 input  -57.11 | X-H torsion

> <Gold.Protein.ActiveResidues>
 VAL166  LYS551  ARG553  GLY616  TRP617  ASP618  TYR619  PRO620  LYS621  CYS622 
 ASP623  PHE694  ASN695  SER759  ASP760  ASP761  ALA762  ILE779  LEU786  VAL792 
 PHE793  MET794  SER795  GLU796  ALA797  LYS798  CYS799  TRP800  GLU811  SER814 

> <Gold.Protein.RotatedAtoms>
  151.5896  133.3368  159.3024 H   0  0  0  0  0  0  0  0  0  0  0  0  # atno 6907 bound_to 6896
  150.8267  134.7505  159.6830 H   0  0  0  0  0  0  0  0  0  0  0  0  # atno 6908 bound_to 6896
  152.4356  134.5699  159.9970 H   0  0  0  0  0  0  0  0  0  0  0  0  # atno 6909 bound_to 6896
  144.8003  140.5141  143.5711 H   0  0  0  0  0  0  0  0  0  0  0  0  # atno 7974 bound_to 7965
  154.4768  140.0902  156.7280 H   0  0  0  0  0  0  0  0  0  0  0  0  # atno 8008 bound_to 7997
  155.4576  140.3460  155.4290 H   0  0  0  0  0  0  0  0  0  0  0  0  # atno 8009 bound_to 7997
  156.1128  140.1452  156.9302 H   0  0  0  0  0  0  0  0  0  0  0  0  # atno 8010 bound_to 7997
  140.5531  143.9473  150.6591 H   0  0  0  0  0  0  0  0  0  0  0  0  # atno 10167 bound_to 10162
  157.6462  130.9539  150.0819 H   0  0  0  0  0  0  0  0  0  0  0  0  # atno 10718 bound_to 10713
  154.2276  135.6366  153.5165 H   0  0  0  0  0  0  0  0  0  0  0  0  # atno 10763 bound_to 10752
  152.9955  135.5511  154.6047 H   0  0  0  0  0  0  0  0  0  0  0  0  # atno 10764 bound_to 10752
  154.5522  135.2902  155.0972 H   0  0  0  0  0  0  0  0  0  0  0  0  # atno 10765 bound_to 10752
  140.7425  134.3498  157.5144 H   0  0  0  0  0  0  0  0  0  0  0  0  # atno 11005 bound_to 11000
  145.5569  139.1478  143.3363 LP  0  0  0  0  0  0  0  0  0  0  0  0  # atno 17320 bound_to 7965
  146.2283  140.5706  142.8987 LP  0  0  0  0  0  0  0  0  0  0  0  0  # atno 17321 bound_to 7965
  140.2904  143.3328  152.1068 LP  0  0  0  0  0  0  0  0  0  0  0  0  # atno 17342 bound_to 10162
  139.5036  144.6759  151.6130 LP  0  0  0  0  0  0  0  0  0  0  0  0  # atno 17343 bound_to 10162
  156.1793  130.3649  149.9057 LP  0  0  0  0  0  0  0  0  0  0  0  0  # atno 17370 bound_to 10713
  156.7014  130.8934  151.3600 LP  0  0  0  0  0  0  0  0  0  0  0  0  # atno 17371 bound_to 10713
  139.8803  134.9090  156.2980 LP  0  0  0  0  0  0  0  0  0  0  0  0  # atno 17394 bound_to 11000
  140.9824  133.7259  156.0692 LP  0  0  0  0  0  0  0  0  0  0  0  0  # atno 17395 bound_to 11000

$$$$
