AV-unprocessed.smi:728|AV-procd|sdf|3518|dock1
  -GOLD-   22720 0513D 1   1.00000     0.00000
 Structure written by MMmdl.
 39 40  0  0  0  0  0  0  0  0  1 V2000
  144.9795  144.0501  154.1137 C   0  0  0  0  0  0  0  0  0  0  0  0
  145.0242  143.2667  155.4346 C   0  0  0  0  0  0  0  0  0  0  0  0
  144.8947  144.1857  156.6578 C   0  0  0  0  0  0  0  0  0  0  0  0
  146.2390  142.3983  155.5325 C   0  0  0  0  0  0  0  0  0  0  0  0
  147.2472  142.3250  154.6655 N   0  0  0  0  0  0  0  0  0  0  0  0
  148.1040  141.4966  155.3255 C   0  0  0  0  0  0  0  0  0  0  0  0
  149.4250  141.0800  154.7610 C   0  0  0  0  0  0  0  0  0  0  0  0
  150.5324  141.2628  155.8002 C   0  0  0  0  0  0  0  0  0  0  0  0
  151.2553  140.3141  156.1041 O   0  0  0  0  0  0  0  0  0  0  0  0
  150.6490  142.4868  156.3398 N   0  0  0  0  0  0  0  0  0  0  0  0
  151.5990  142.8668  157.3800 C   0  0  0  0  0  0  0  0  0  0  0  0
  151.2468  142.1681  158.7099 C   0  0  0  0  0  0  0  0  0  0  0  0
  152.1784  142.6175  159.8471 C   0  0  0  0  0  0  0  0  0  0  0  0
  152.1694  144.1461  160.0062 C   0  0  0  0  0  0  0  0  0  0  0  0
  152.5285  144.8429  158.6843 C   0  0  0  0  0  0  0  0  0  0  0  0
  151.5933  144.3982  157.5483 C   0  0  0  0  0  0  0  0  0  0  0  0
  147.7006  141.0807  156.5201 N   0  0  0  0  0  0  0  0  0  0  0  0
  146.4567  141.7080  156.6783 O   0  0  0  0  0  0  0  0  0  0  0  0
  145.0155  143.3767  153.2566 H   0  0  0  0  0  0  0  0  0  0  0  0
  145.8201  144.7401  154.0313 H   0  0  0  0  0  0  0  0  0  0  0  0
  144.0624  144.6344  154.0351 H   0  0  0  0  0  0  0  0  0  0  0  0
  144.1591  142.6019  155.4379 H   0  0  0  0  0  0  0  0  0  0  0  0
  144.8550  143.6059  157.5808 H   0  0  0  0  0  0  0  0  0  0  0  0
  143.9858  144.7855  156.6052 H   0  0  0  0  0  0  0  0  0  0  0  0
  145.7415  144.8691  156.7308 H   0  0  0  0  0  0  0  0  0  0  0  0
  149.3818  140.0365  154.4448 H   0  0  0  0  0  0  0  0  0  0  0  0
  149.6481  141.6721  153.8724 H   0  0  0  0  0  0  0  0  0  0  0  0
  150.0083  143.2022  156.0275 H   0  0  0  0  0  0  0  0  0  0  0  0
  152.6029  142.5637  157.0763 H   0  0  0  0  0  0  0  0  0  0  0  0
  150.2133  142.3896  158.9809 H   0  0  0  0  0  0  0  0  0  0  0  0
  151.3095  141.0852  158.5948 H   0  0  0  0  0  0  0  0  0  0  0  0
  151.8779  142.1445  160.7825 H   0  0  0  0  0  0  0  0  0  0  0  0
  153.1942  142.2778  159.6414 H   0  0  0  0  0  0  0  0  0  0  0  0
  151.1829  144.4741  160.3361 H   0  0  0  0  0  0  0  0  0  0  0  0
  152.8714  144.4430  160.7859 H   0  0  0  0  0  0  0  0  0  0  0  0
  152.4750  145.9250  158.8080 H   0  0  0  0  0  0  0  0  0  0  0  0
  153.5611  144.6128  158.4187 H   0  0  0  0  0  0  0  0  0  0  0  0
  151.8942  144.8779  156.6163 H   0  0  0  0  0  0  0  0  0  0  0  0
  150.5802  144.7435  157.7602 H   0  0  0  0  0  0  0  0  0  0  0  0
  1  2  1  0  0  0  0
  1 19  1  0  0  0  0
  1 20  1  0  0  0  0
  1 21  1  0  0  0  0
  2  3  1  0  0  0  0
  2  4  1  0  0  0  0
  2 22  1  0  0  0  0
  3 23  1  0  0  0  0
  3 24  1  0  0  0  0
  3 25  1  0  0  0  0
  4 18  1  0  0  0  0
  4  5  2  0  0  0  0
  5  6  1  0  0  0  0
  6  7  1  0  0  0  0
  6 17  2  0  0  0  0
  7  8  1  0  0  0  0
  7 26  1  0  0  0  0
  7 27  1  0  0  0  0
  8  9  2  0  0  0  0
  8 10  1  0  0  0  0
 10 11  1  0  0  0  0
 10 28  1  0  0  0  0
 11 16  1  0  0  0  0
 11 12  1  0  0  0  0
 11 29  1  0  0  0  0
 12 13  1  0  0  0  0
 12 30  1  0  0  0  0
 12 31  1  0  0  0  0
 13 14  1  0  0  0  0
 13 32  1  0  0  0  0
 13 33  1  0  0  0  0
 14 15  1  0  0  0  0
 14 34  1  0  0  0  0
 14 35  1  0  0  0  0
 15 16  1  0  0  0  0
 15 36  1  0  0  0  0
 15 37  1  0  0  0  0
 16 38  1  0  0  0  0
 16 39  1  0  0  0  0
 17 18  1  0  0  0  0
M  END
> <s_m_source_file>
AV-unprocessed.smi

> <i_m_source_file_index>
728

> <i_lp_mmshare_version>
43012

> <i_f3d_flags>
0

> <s_epik_input>
W0NIM11bQ0hdKFtDSDNdKWMxbmMobm8xKVtDSDJdQyg9TylbTkhdW0NIXTJbQ0gyXVtDSDJdW0NIMl1bQ0gyXVtDSDJdMg==

> <s_epik_cmdline>
J2VwaWtfcHl0aG9uJywgJy1waCcsICc3LjAnLCAnLXRuJywgJzgnLCAnLW1hJywgJzIwMCcsICctbWV0YWxfYmluZGluZycsICctaW1hZScsICc8aW5maWxlLm1hZT4nLCAnLW9tYWUnLCAnPG91dGZpbGUubWFlPic=

> <r_lp_tautomer_probability>
1

> <r_epik_Ionization_Penalty>
6.23623e-08

> <r_epik_Ionization_Penalty_Charging>
0

> <r_epik_Ionization_Penalty_Neutral>
6.23623e-08

> <r_epik_State_Penalty>
-0

> <r_epik_Charging_Adjusted_Penalty>
0

> <i_epik_Tot_Q>
0

> <i_epik_Tot_abs_Q>
0

> <r_epik_Metal_State_Penalty>
-0

> <b_epik_Metal_Only>
0

> <s_lp_Force_Field>
OPLS_2005

> <r_lp_Energy>
7.21718

> <b_lp_Chiralities_Consistent>
1

> <s_lp_Variant>
AV-unprocessed.smi:728-1

> <Gold.Version>
5.8.1

> <Gold.Id.Protein>
6NUR|6NUR_protein|mol2

> <Gold.PLP.Fitness>
39.9192

> <Gold.PLP.PLP>
-37.3717

> <Gold.PLP.part.hbond>
-1.0000

> <Gold.PLP.part.metal>
0.0000

> <Gold.PLP.part.buried>
-5.6523

> <Gold.PLP.part.nonpolar>
-31.2057

> <Gold.PLP.part.repulsive>
0.9496

> <Gold.PLP.ligand.clash>
0.0000

> <Gold.PLP.ligand.torsion>
0.3011

> <Gold.PLP.Chemscore.Hbond>
1.0000

> <Gold.PLP.Chemscore.CHOScore>
0.0000

> <Gold.PLP.Chemscore.Metal>
0.0000

> <Gold.Chemscore.Hbonds>
donor molecule, donor type, donor heavy atom, donor atom, acceptor molecule, acceptor atom, score
      L1  H    10    28       P1  8028  1.00

> <Gold.PLP.Chemscore.Internal.Correction>
0.1498

> <Gold.Rescore>
     Score         DG    S(hbond)    S(metal)    S(lipo)     H(rot)  DE(clash)    DE(int)     intcor
     14.42     -15.24       1.00        0.00      90.71       1.63       0.55       0.27       ----

> <Gold.Chemscore.Fitness>
14.4177

> <Gold.Chemscore.DG>
-15.2412

> <Gold.Chemscore.ZeroCoef>
-5.4800

> <Gold.Chemscore.Hbond>
0.9964

> <Gold.Chemscore.Metal>
0.0000

> <Gold.Chemscore.Lipo>
90.7124

> <Gold.Chemscore.Internal_Hbond>
0.0000

> <Gold.Chemscore.DEClash>
0.5499

> <Gold.Chemscore.DEInternal>
0.2736

> <Gold.Chemscore.Rot>
1.6329

> <Gold.Chemscore.Internal.Correction>
   9.000000E+99

> <Gold.Chemscore.Hbonds>
donor molecule, donor type, donor heavy atom, donor atom, acceptor molecule, acceptor atom, score
      L1  H    10    28       P1  8028  1.00

> <Gold.Chemscore.Hbond.Weighted>
-3.3280

> <Gold.Chemscore.Metal.Weighted>
-0.0000

> <Gold.Chemscore.Lipo.Weighted>
-10.6134

> <Gold.Chemscore.Internal_Hbond.Weighted>
0.0000

> <Gold.Chemscore.DEClash.Weighted>
0.5499

> <Gold.Chemscore.DEInternal.Weighted>
0.2736

> <Gold.Chemscore.Rot.Weighted>
4.1802

> <Gold.Chemscore.Internal.Correction.Weighted>
   9.000000E+99

> <Gold.Protein.RotatedTorsions>
[ 6907 6896 6895 6894 ] final  141.74 input  -60.11 | X-H torsion
[ 7974 7965 7964 7962 ] final   20.23 input  175.53 | X-H torsion
[ 8008 7997 7996 7995 ] final -140.33 input   59.86 | X-H torsion
[ 10167 10162 10161 10158 ] final -143.08 input  -65.29 | X-H torsion
[ 10718 10713 10712 10709 ] final -100.07 input   66.30 | X-H torsion
[ 10763 10752 10751 10750 ] final -158.06 input  -60.55 | X-H torsion
[ 11005 11000 10999 10996 ] final  153.34 input  -57.11 | X-H torsion

> <Gold.Protein.ActiveResidues>
 VAL166  LYS551  ARG553  GLY616  TRP617  ASP618  TYR619  PRO620  LYS621  CYS622 
 ASP623  PHE694  ASN695  SER759  ASP760  ASP761  ALA762  ILE779  LEU786  VAL792 
 PHE793  MET794  SER795  GLU796  ALA797  LYS798  CYS799  TRP800  GLU811  SER814 

> <Gold.Protein.RotatedAtoms>
  152.2273  133.5030  159.5195 H   0  0  0  0  0  0  0  0  0  0  0  0  # atno 6907 bound_to 6896
  150.7028  134.1263  159.4062 H   0  0  0  0  0  0  0  0  0  0  0  0  # atno 6908 bound_to 6896
  151.9184  135.0309  160.0571 H   0  0  0  0  0  0  0  0  0  0  0  0  # atno 6909 bound_to 6896
  146.2119  139.8200  142.8682 H   0  0  0  0  0  0  0  0  0  0  0  0  # atno 7974 bound_to 7965
  155.4595  140.0544  157.2992 H   0  0  0  0  0  0  0  0  0  0  0  0  # atno 8008 bound_to 7997
  154.4743  140.2054  155.9871 H   0  0  0  0  0  0  0  0  0  0  0  0  # atno 8009 bound_to 7997
  156.1107  140.3204  155.8073 H   0  0  0  0  0  0  0  0  0  0  0  0  # atno 8010 bound_to 7997
  139.8027  143.7811  152.2659 H   0  0  0  0  0  0  0  0  0  0  0  0  # atno 10167 bound_to 10162
  156.0152  130.5311  150.6763 H   0  0  0  0  0  0  0  0  0  0  0  0  # atno 10718 bound_to 10713
  154.7586  135.3111  154.8421 H   0  0  0  0  0  0  0  0  0  0  0  0  # atno 10763 bound_to 10752
  153.9188  135.6798  153.4752 H   0  0  0  0  0  0  0  0  0  0  0  0  # atno 10764 bound_to 10752
  153.1185  135.4833  154.9087 H   0  0  0  0  0  0  0  0  0  0  0  0  # atno 10765 bound_to 10752
  140.1389  134.8752  157.2304 H   0  0  0  0  0  0  0  0  0  0  0  0  # atno 11005 bound_to 11000
  145.3106  141.0219  143.3556 LP  0  0  0  0  0  0  0  0  0  0  0  0  # atno 17320 bound_to 7965
  144.8938  139.4739  143.6665 LP  0  0  0  0  0  0  0  0  0  0  0  0  # atno 17321 bound_to 7965
  139.7936  144.7401  150.9921 LP  0  0  0  0  0  0  0  0  0  0  0  0  # atno 17342 bound_to 10162
  140.7820  143.4416  151.0543 LP  0  0  0  0  0  0  0  0  0  0  0  0  # atno 17343 bound_to 10162
  157.4475  131.0868  151.0880 LP  0  0  0  0  0  0  0  0  0  0  0  0  # atno 17370 bound_to 10713
  157.1406  130.6141  149.5554 LP  0  0  0  0  0  0  0  0  0  0  0  0  # atno 17371 bound_to 10713
  140.2747  134.3419  155.7362 LP  0  0  0  0  0  0  0  0  0  0  0  0  # atno 17394 bound_to 11000
  141.2183  133.7444  156.9275 LP  0  0  0  0  0  0  0  0  0  0  0  0  # atno 17395 bound_to 11000

$$$$
