AV-unprocessed.smi:740|AV-procd|sdf|3548|dock6
  -GOLD-   22720 0543D 1   1.00000     0.00000
 Structure written by MMmdl.
 44 46  0  0  0  0  0  0  0  0  1 V2000
  153.0648  143.8745  162.8052 C   0  0  0  0  0  0  0  0  0  0  0  0
  152.8181  143.1202  161.5104 C   0  0  0  0  0  0  0  0  0  0  0  0
  153.3469  141.8182  161.3624 C   0  0  0  0  0  0  0  0  0  0  0  0
  153.1431  141.0843  160.1734 C   0  0  0  0  0  0  0  0  0  0  0  0
  153.5657  139.8148  159.8177 N   0  0  0  0  0  0  0  0  0  0  0  0
  153.0638  139.6997  158.5917 C   0  0  0  0  0  0  0  0  0  0  0  0
  152.3631  140.7447  158.1111 N   0  0  0  0  0  0  0  0  0  0  0  0
  151.7309  140.8435  156.8076 C   0  0  0  0  0  0  0  0  0  0  0  0
  151.9144  139.5653  155.9672 C   0  0  2  0  0  0  0  0  0  0  0  0
  152.8136  139.8430  154.9107 O   0  0  0  0  0  0  0  0  0  0  0  0
  150.5786  139.0787  155.3680 C   0  0  0  0  0  0  0  0  0  0  0  0
  149.5019  140.0557  155.5662 N   0  0  0  0  0  0  0  0  0  0  0  0
  148.7626  140.1420  156.6806 C   0  0  0  0  0  0  0  0  0  0  0  0
  148.8797  139.4450  157.6882 O   0  0  0  0  0  0  0  0  0  0  0  0
  147.7121  141.2365  156.5559 C   0  0  0  0  0  0  0  0  0  0  0  0
  147.9488  141.7937  155.1441 C   0  0  2  0  0  0  0  0  0  0  0  0
  146.7218  141.6898  154.2233 C   0  0  0  0  0  0  0  0  0  0  0  0
  149.1113  140.9412  154.6389 C   0  0  0  0  0  0  0  0  0  0  0  0
  149.5976  141.0782  153.5162 O   0  0  0  0  0  0  0  0  0  0  0  0
  152.3876  141.6925  159.1286 C   0  0  0  0  0  0  0  0  0  0  0  0
  151.8556  142.9871  159.2643 C   0  0  0  0  0  0  0  0  0  0  0  0
  152.0707  143.7073  160.4580 C   0  0  0  0  0  0  0  0  0  0  0  0
  151.4958  145.1061  160.5930 C   0  0  0  0  0  0  0  0  0  0  0  0
  153.6228  143.2683  163.5194 H   0  0  0  0  0  0  0  0  0  0  0  0
  152.1201  144.1546  163.2717 H   0  0  0  0  0  0  0  0  0  0  0  0
  153.6395  144.7810  162.6140 H   0  0  0  0  0  0  0  0  0  0  0  0
  153.9173  141.3711  162.1632 H   0  0  0  0  0  0  0  0  0  0  0  0
  153.2149  138.8041  158.0067 H   0  0  0  0  0  0  0  0  0  0  0  0
  150.6693  141.0408  156.9626 H   0  0  0  0  0  0  0  0  0  0  0  0
  152.1345  141.7113  156.2844 H   0  0  0  0  0  0  0  0  0  0  0  0
  152.3485  138.7897  156.5999 H   0  0  0  0  0  0  0  0  0  0  0  0
  152.9918  139.0391  154.4469 H   0  0  0  0  0  0  0  0  0  0  0  0
  150.6971  138.9227  154.2942 H   0  0  0  0  0  0  0  0  0  0  0  0
  150.3084  138.0998  155.7685 H   0  0  0  0  0  0  0  0  0  0  0  0
  146.7144  140.8131  156.6771 H   0  0  0  0  0  0  0  0  0  0  0  0
  147.8618  141.9973  157.3226 H   0  0  0  0  0  0  0  0  0  0  0  0
  148.2786  142.8318  155.2033 H   0  0  0  0  0  0  0  0  0  0  0  0
  146.9377  142.0856  153.2303 H   0  0  0  0  0  0  0  0  0  0  0  0
  145.8847  142.2592  154.6277 H   0  0  0  0  0  0  0  0  0  0  0  0
  146.3939  140.6560  154.1066 H   0  0  0  0  0  0  0  0  0  0  0  0
  151.2899  143.4231  158.4543 H   0  0  0  0  0  0  0  0  0  0  0  0
  150.9696  145.4087  159.6871 H   0  0  0  0  0  0  0  0  0  0  0  0
  152.2901  145.8302  160.7755 H   0  0  0  0  0  0  0  0  0  0  0  0
  150.7887  145.1499  161.4214 H   0  0  0  0  0  0  0  0  0  0  0  0
  1  2  1  0  0  0  0
  1 24  1  0  0  0  0
  1 25  1  0  0  0  0
  1 26  1  0  0  0  0
  2 22  1  0  0  0  0
  2  3  2  0  0  0  0
  3  4  1  0  0  0  0
  3 27  1  0  0  0  0
  4 20  2  0  0  0  0
  4  5  1  0  0  0  0
  5  6  2  0  0  0  0
  6  7  1  0  0  0  0
  6 28  1  0  0  0  0
  7  8  1  0  0  0  0
  7 20  1  0  0  0  0
  8  9  1  0  0  0  0
  8 29  1  0  0  0  0
  8 30  1  0  0  0  0
  9 10  1  0  0  0  0
  9 11  1  0  0  0  0
  9 31  1  0  0  0  0
 10 32  1  0  0  0  0
 11 12  1  0  0  0  0
 11 33  1  0  0  0  0
 11 34  1  0  0  0  0
 12 18  1  0  0  0  0
 12 13  1  0  0  0  0
 13 14  2  0  0  0  0
 13 15  1  0  0  0  0
 15 16  1  0  0  0  0
 15 35  1  0  0  0  0
 15 36  1  0  0  0  0
 16 17  1  0  0  0  0
 16 18  1  0  0  0  0
 16 37  1  0  0  0  0
 17 38  1  0  0  0  0
 17 39  1  0  0  0  0
 17 40  1  0  0  0  0
 18 19  2  0  0  0  0
 20 21  1  0  0  0  0
 21 22  2  0  0  0  0
 21 41  1  0  0  0  0
 22 23  1  0  0  0  0
 23 42  1  0  0  0  0
 23 43  1  0  0  0  0
 23 44  1  0  0  0  0
M  END
> <s_m_source_file>
AV-unprocessed.smi

> <i_m_source_file_index>
740

> <i_lp_mmshare_version>
43012

> <i_f3d_flags>
0

> <s_epik_input>
W0NIM11jKFtjSF0xKWMoW0NIM10pW2NIXWMoYzEyKW4oW2NIXW4yKVtDSDJdW0NASF0oW09IXSlbQ0gyXU4zQyg9TylbQ0gyXVtDQEBIXShbQ0gzXSlDMz1P

> <s_epik_cmdline>
J2VwaWtfcHl0aG9uJywgJy1waCcsICc3LjAnLCAnLXRuJywgJzgnLCAnLW1hJywgJzIwMCcsICctbWV0YWxfYmluZGluZycsICctaW1hZScsICc8aW5maWxlLm1hZT4nLCAnLW9tYWUnLCAnPG91dGZpbGUubWFlPic=

> <r_lp_tautomer_probability>
1

> <r_epik_Ionization_Penalty>
0.104021

> <r_epik_Ionization_Penalty_Charging>
0

> <r_epik_Ionization_Penalty_Neutral>
0.104021

> <r_epik_State_Penalty>
0.0939354

> <r_epik_Charging_Adjusted_Penalty>
0.0939354

> <i_epik_Tot_Q>
0

> <i_epik_Tot_abs_Q>
0

> <r_epik_Metal_State_Penalty>
0.000101783

> <b_epik_Metal_Only>
0

> <s_lp_Force_Field>
OPLS_2005

> <r_lp_Energy>
16.7866

> <b_lp_Chiralities_Consistent>
1

> <s_lp_Variant>
AV-unprocessed.smi:740-3

> <Gold.Version>
5.8.1

> <Gold.Id.Protein>
6NUR|6NUR_protein|mol2

> <Gold.PLP.Fitness>
48.8160

> <Gold.PLP.PLP>
-44.7985

> <Gold.PLP.part.hbond>
-3.9719

> <Gold.PLP.part.metal>
0.0000

> <Gold.PLP.part.buried>
-4.3934

> <Gold.PLP.part.nonpolar>
-39.1823

> <Gold.PLP.part.repulsive>
3.3268

> <Gold.PLP.ligand.clash>
0.0000

> <Gold.PLP.ligand.torsion>
1.7311

> <Gold.PLP.Chemscore.Hbond>
2.4889

> <Gold.PLP.Chemscore.CHOScore>
0.0000

> <Gold.PLP.Chemscore.Metal>
0.0000

> <Gold.Chemscore.Hbonds>
donor molecule, donor type, donor heavy atom, donor atom, acceptor molecule, acceptor atom, score
      P1  H  7989  7998       L1    10  0.40
      P1  H  7997  8008       L1    10  1.00
      P1  H  8011  8017       L1    19  1.00

> <Gold.PLP.Chemscore.Internal.Correction>
0.0130

> <Gold.Rescore>
     Score         DG    S(hbond)    S(metal)    S(lipo)     H(rot)  DE(clash)    DE(int)     intcor
     15.39     -19.95       1.99        0.00     117.42       2.31       2.12       2.43       ----

> <Gold.Chemscore.Fitness>
15.3926

> <Gold.Chemscore.DG>
-19.9496

> <Gold.Chemscore.ZeroCoef>
-5.4800

> <Gold.Chemscore.Hbond>
1.9931

> <Gold.Chemscore.Metal>
0.0000

> <Gold.Chemscore.Lipo>
117.4221

> <Gold.Chemscore.Internal_Hbond>
0.0000

> <Gold.Chemscore.DEClash>
2.1223

> <Gold.Chemscore.DEInternal>
2.4347

> <Gold.Chemscore.Rot>
2.3147

> <Gold.Chemscore.Internal.Correction>
   9.000000E+99

> <Gold.Chemscore.Hbonds>
donor molecule, donor type, donor heavy atom, donor atom, acceptor molecule, acceptor atom, score
      P1  H  7989  7998       L1    19  0.21
      P1  H  7997  8008       L1    10  0.13
      P1  H  8011  8017       L1    19  0.96

> <Gold.Chemscore.Hbond.Weighted>
-6.6568

> <Gold.Chemscore.Metal.Weighted>
-0.0000

> <Gold.Chemscore.Lipo.Weighted>
-13.7384

> <Gold.Chemscore.Internal_Hbond.Weighted>
0.0000

> <Gold.Chemscore.DEClash.Weighted>
2.1223

> <Gold.Chemscore.DEInternal.Weighted>
2.4347

> <Gold.Chemscore.Rot.Weighted>
5.9256

> <Gold.Chemscore.Internal.Correction.Weighted>
   9.000000E+99

> <Gold.Protein.RotatedTorsions>
[ 6907 6896 6895 6894 ] final -169.15 input  -60.11 | X-H torsion
[ 7974 7965 7964 7962 ] final   40.25 input  175.53 | X-H torsion
[ 8008 7997 7996 7995 ] final  -19.63 input   59.86 | X-H torsion
[ 10167 10162 10161 10158 ] final  -61.35 input  -65.29 | X-H torsion
[ 10718 10713 10712 10709 ] final -128.64 input   66.30 | X-H torsion
[ 10763 10752 10751 10750 ] final -137.29 input  -60.55 | X-H torsion
[ 11005 11000 10999 10996 ] final  -50.41 input  -57.11 | X-H torsion

> <Gold.Protein.ActiveResidues>
 VAL166  LYS551  ARG553  GLY616  TRP617  ASP618  TYR619  PRO620  LYS621  CYS622 
 ASP623  PHE694  ASN695  SER759  ASP760  ASP761  ALA762  ILE779  LEU786  VAL792 
 PHE793  MET794  SER795  GLU796  ALA797  LYS798  CYS799  TRP800  GLU811  SER814 

> <Gold.Protein.RotatedAtoms>
  151.4870  133.3533  159.2846 H   0  0  0  0  0  0  0  0  0  0  0  0  # atno 6907 bound_to 6896
  150.8860  134.8259  159.7270 H   0  0  0  0  0  0  0  0  0  0  0  0  # atno 6908 bound_to 6896
  152.4793  134.4774  159.9706 H   0  0  0  0  0  0  0  0  0  0  0  0  # atno 6909 bound_to 6896
  146.0919  139.5555  142.9470 H   0  0  0  0  0  0  0  0  0  0  0  0  # atno 7974 bound_to 7965
  154.4823  140.2083  155.9734 H   0  0  0  0  0  0  0  0  0  0  0  0  # atno 8008 bound_to 7997
  156.1184  140.3217  155.8142 H   0  0  0  0  0  0  0  0  0  0  0  0  # atno 8009 bound_to 7997
  155.4511  140.0517  157.2992 H   0  0  0  0  0  0  0  0  0  0  0  0  # atno 8010 bound_to 7997
  140.6011  143.2362  151.5925 H   0  0  0  0  0  0  0  0  0  0  0  0  # atno 10167 bound_to 10162
  156.1970  130.6832  151.0493 H   0  0  0  0  0  0  0  0  0  0  0  0  # atno 10718 bound_to 10713
  154.8665  135.3647  154.5199 H   0  0  0  0  0  0  0  0  0  0  0  0  # atno 10763 bound_to 10752
  153.5830  135.7018  153.5460 H   0  0  0  0  0  0  0  0  0  0  0  0  # atno 10764 bound_to 10752
  153.3441  135.4090  155.1557 H   0  0  0  0  0  0  0  0  0  0  0  0  # atno 10765 bound_to 10752
  141.0814  133.6652  156.3727 H   0  0  0  0  0  0  0  0  0  0  0  0  # atno 11005 bound_to 11000
  145.6022  141.0353  143.2012 LP  0  0  0  0  0  0  0  0  0  0  0  0  # atno 17320 bound_to 7965
  144.7367  139.7566  143.7327 LP  0  0  0  0  0  0  0  0  0  0  0  0  # atno 17321 bound_to 7965
  139.5292  144.2967  152.1108 LP  0  0  0  0  0  0  0  0  0  0  0  0  # atno 17342 bound_to 10162
  140.2148  144.4526  150.6369 LP  0  0  0  0  0  0  0  0  0  0  0  0  # atno 17343 bound_to 10162
  157.6963  131.0792  150.6958 LP  0  0  0  0  0  0  0  0  0  0  0  0  # atno 17370 bound_to 10713
  156.7015  130.4624  149.5571 LP  0  0  0  0  0  0  0  0  0  0  0  0  # atno 17371 bound_to 10713
  140.5459  134.6075  157.5394 LP  0  0  0  0  0  0  0  0  0  0  0  0  # atno 17394 bound_to 11000
  139.9629  134.7423  156.0200 LP  0  0  0  0  0  0  0  0  0  0  0  0  # atno 17395 bound_to 11000

$$$$
