#       Name:                AV-unprocessed.smi:2059
#       Creating user name   scv26
#       Creation time:       Fri Mar 27 11:02:11 2020


#       File generated by GOLD software.
#

@<TRIPOS>MOLECULE
AV-unprocessed.smi:2059
    35    36     1
SMALL
NO_CHARGES


@<TRIPOS>ATOM
      1 ****         0.4221  -6.9397  -1.2092 C.3            1 S1                 0.0000
      2 ****         0.7921  -5.5412  -0.8513 C.2            1 S1                 0.0000
      3 ****         0.0674  -4.3894  -0.7284 C.2            1 S1                 0.0000
      4 ****         1.0463  -3.4257  -0.3639 C.2            1 S1                 0.0000
      5 ****         0.6633  -2.0716  -0.1413 N.am           1 S1                 0.0000
      6 ****         1.3875  -0.9758   0.1733 C.2            1 S1                 0.0000
      7 ****         2.6018  -1.1695   0.2914 O.2            1 S1                 0.0000
      8 ****         0.7340   0.2124   0.3274 N.pl3          1 S1                -1.0000
      9 ****         1.3624   1.4828   0.6972 C.3            1 S1                 0.0000
     10 ****         0.3253   2.4472   1.3054 C.3            1 S1                 0.0000
     11 ****         0.9316   3.8574   1.3497 C.3            1 S1                 0.0000
     12 ****         2.0553   3.9628  -0.0970 S.o2           1 S1                 0.0000
     13 ****         1.4111   4.7436  -1.1648 O.2            1 S1                 0.0000
     14 ****         3.4074   4.3044   0.3727 O.2            1 S1                 0.0000
     15 ****         1.9793   2.1794  -0.5259 C.3            1 S1                 0.0000
     16 ****         2.2602  -3.9506  -0.2695 N.2            1 S1                 0.0000
     17 ****         2.1039  -5.3060  -0.5814 O.3            1 S1                 0.0000
     18 ****        -0.6190  -6.9984  -1.5269 H              1 S1                 0.0000
     19 ****         0.5534  -7.6040  -0.3550 H              1 S1                 0.0000
     20 ****         1.0451  -7.3078  -2.0246 H              1 S1                 0.0000
     21 ****        -0.9941  -4.2582  -0.8774 H              1 S1                 0.0000
     22 ****        -0.3260  -1.8990  -0.2399 H              1 S1                 0.0000
     23 ****         2.1504   1.3463   1.4398 H              1 S1                 0.0000
     24 ****        -0.5635   2.4705   0.6724 H              1 S1                 0.0000
     25 ****         0.0017   2.1226   2.2949 H              1 S1                 0.0000
     26 ****         0.1771   4.6421   1.2978 H              1 S1                 0.0000
     27 ****         1.5245   4.0056   2.2536 H              1 S1                 0.0000
     28 ****         2.9737   1.8057  -0.7702 H              1 S1                 0.0000
     29 ****         1.3417   2.0758  -1.4046 H              1 S1                 0.0000
     30 ****         2.9775  -2.0862   0.1553 LP             1 S1                 0.0000
     31 ****         3.2092  -0.4096   0.5232 LP             1 S1                 0.0000
     32 ****        -0.2544   0.2160   0.1755 LP             1 S1                 0.0000
     33 ****         3.1076  -3.4783  -0.0269 LP             1 S1                 0.0000
     34 ****         2.6585  -5.5336  -1.3818 LP             1 S1                 0.0000
     35 ****         2.3936  -5.8659   0.1950 LP             1 S1                 0.0000
@<TRIPOS>BOND
    1    1    2 1     
    2    1   18 1     
    3    1   19 1     
    4    1   20 1     
    5    2   17 1     
    6    2    3 2     
    7    3    4 1     
    8    3   21 1     
    9    4    5 1     
   10    4   16 2     
   11    5    6 am    
   12    5   22 1     
   13    6    7 2     
   14    6    8 1     
   15    8    9 1     
   16    9   15 1     
   17    9   10 1     
   18    9   23 1     
   19   10   11 1     
   20   10   24 1     
   21   10   25 1     
   22   11   12 1     
   23   11   26 1     
   24   11   27 1     
   25   12   13 2     
   26   12   14 2     
   27   12   15 1     
   28   15   28 1     
   29   15   29 1     
   30   16   17 1     
   31    7   30 1     
   32    7   31 1     
   33    8   32 1     
   34   16   33 1     
   35   17   34 1     
   36   17   35 1     
@<TRIPOS>SUBSTRUCTURE
      1 S1             1
@<TRIPOS>SET
LONE_PAIRS      STATIC     ATOMS    <user>   **** ""
8 30 31 32 13 14 33 34 35
DONOR_HYDROGENS      STATIC     ATOMS    <user>   **** ""
1 22
ATOM$BLUE        STATIC     ATOMS    COLORGROUP SYSTEM
8 30 31 32 13 14 33 34 35
ATOM$RED        STATIC     ATOMS    COLORGROUP SYSTEM
1 22
