AV-unprocessed.smi:110|AV-procd|sdf|1065|dock3
  -GOLD-   2262018143D 1   1.00000     0.00000
 Structure written by MMmdl.
 46 50  0  0  0  0  0  0  0  0  1 V2000
  143.6404  137.9221  152.6240 O   0  0  0  0  0  0  0  0  0  0  0  0
  144.3973  137.5190  153.7453 C   0  0  0  0  0  0  0  0  0  0  0  0
  145.6770  138.3625  153.8502 C   0  0  1  0  0  0  0  0  0  0  0  0
  146.5649  137.7768  154.8030 O   0  0  0  0  0  0  0  0  0  0  0  0
  147.8956  138.0090  154.4434 C   0  0  2  0  0  0  0  0  0  0  0  0
  148.5859  138.7763  155.5322 N   0  0  0  0  0  0  0  0  0  0  0  0
  148.0019  139.3468  156.6401 C   0  0  0  0  0  0  0  0  0  0  0  0
  148.8178  139.9698  157.4453 N   0  0  0  0  0  0  0  0  0  0  0  0
  150.0671  139.8131  156.8572 C   0  0  0  0  0  0  0  0  0  0  0  0
  151.3873  140.2342  157.1892 C   0  0  0  0  0  0  0  0  0  0  0  0
  151.7131  140.9589  158.2856 N   0  0  0  0  0  0  0  0  0  0  0  0
  152.4179  140.2985  159.3937 C   0  0  0  0  0  0  0  0  0  0  0  0
  153.0900  141.3971  160.2392 C   0  0  0  0  0  0  0  0  0  0  0  0
  152.5833  142.6286  159.5609 C   0  0  0  0  0  0  0  0  0  0  0  0
  152.8089  143.9633  159.9393 C   0  0  0  0  0  0  0  0  0  0  0  0
  152.2131  144.9832  159.1671 C   0  0  0  0  0  0  0  0  0  0  0  0
  151.4058  144.6567  158.0526 C   0  0  0  0  0  0  0  0  0  0  0  0
  151.1917  143.3080  157.6922 C   0  0  0  0  0  0  0  0  0  0  0  0
  151.8079  142.2947  158.4550 C   0  0  0  0  0  0  0  0  0  0  0  0
  152.3821  139.9312  156.3173 N   0  0  0  0  0  0  0  0  0  0  0  0
  152.1159  139.2281  155.2136 C   0  0  0  0  0  0  0  0  0  0  0  0
  150.9438  138.7529  154.7916 N   0  0  0  0  0  0  0  0  0  0  0  0
  149.9301  139.0773  155.6449 C   0  0  0  0  0  0  0  0  0  0  0  0
  147.8960  138.7373  153.0857 C   0  0  2  0  0  0  0  0  0  0  0  0
  148.0894  140.1396  153.1902 O   0  0  0  0  0  0  0  0  0  0  0  0
  146.5124  138.3700  152.5684 C   0  0  2  0  0  0  0  0  0  0  0  0
  146.0263  139.2658  151.5859 O   0  0  0  0  0  0  0  0  0  0  0  0
  145.4480  139.3894  154.1397 H   0  0  0  0  0  0  0  0  0  0  0  0
  148.4184  137.0524  154.4077 H   0  0  0  0  0  0  0  0  0  0  0  0
  148.6860  138.3299  152.4543 H   0  0  0  0  0  0  0  0  0  0  0  0
  146.5441  137.3646  152.1459 H   0  0  0  0  0  0  0  0  0  0  0  0
  143.4240  138.8369  152.7201 H   0  0  0  0  0  0  0  0  0  0  0  0
  143.7988  137.5898  154.6539 H   0  0  0  0  0  0  0  0  0  0  0  0
  144.6516  136.4680  153.6055 H   0  0  0  0  0  0  0  0  0  0  0  0
  146.9408  139.2872  156.8340 H   0  0  0  0  0  0  0  0  0  0  0  0
  151.6976  139.7422  159.9948 H   0  0  0  0  0  0  0  0  0  0  0  0
  153.1565  139.5891  159.0177 H   0  0  0  0  0  0  0  0  0  0  0  0
  152.7815  141.3635  161.2845 H   0  0  0  0  0  0  0  0  0  0  0  0
  154.1777  141.3509  160.1795 H   0  0  0  0  0  0  0  0  0  0  0  0
  153.4172  144.2016  160.7993 H   0  0  0  0  0  0  0  0  0  0  0  0
  152.3677  146.0184  159.4336 H   0  0  0  0  0  0  0  0  0  0  0  0
  150.9455  145.4444  157.4748 H   0  0  0  0  0  0  0  0  0  0  0  0
  150.5620  143.0659  156.8491 H   0  0  0  0  0  0  0  0  0  0  0  0
  152.9622  139.0170  154.5769 H   0  0  0  0  0  0  0  0  0  0  0  0
  148.6644  140.4156  152.4929 H   0  0  0  0  0  0  0  0  0  0  0  0
  145.3331  138.8389  151.1061 H   0  0  0  0  0  0  0  0  0  0  0  0
  1  2  1  0  0  0  0
  1 32  1  0  0  0  0
  2  3  1  0  0  0  0
  2 33  1  0  0  0  0
  2 34  1  0  0  0  0
  3 28  1  0  0  0  0
  3 26  1  0  0  0  0
  3  4  1  0  0  0  0
  4  5  1  0  0  0  0
  5 29  1  0  0  0  0
  5  6  1  0  0  0  0
  5 24  1  0  0  0  0
  6 23  1  0  0  0  0
  6  7  1  0  0  0  0
  7  8  2  0  0  0  0
  7 35  1  0  0  0  0
  8  9  1  0  0  0  0
  9 23  2  0  0  0  0
  9 10  1  0  0  0  0
 10 11  1  0  0  0  0
 10 20  2  0  0  0  0
 11 19  1  0  0  0  0
 11 12  1  0  0  0  0
 12 13  1  0  0  0  0
 12 36  1  0  0  0  0
 12 37  1  0  0  0  0
 13 14  1  0  0  0  0
 13 38  1  0  0  0  0
 13 39  1  0  0  0  0
 14 19  2  0  0  0  0
 14 15  1  0  0  0  0
 15 16  2  0  0  0  0
 15 40  1  0  0  0  0
 16 17  1  0  0  0  0
 16 41  1  0  0  0  0
 17 18  2  0  0  0  0
 17 42  1  0  0  0  0
 18 19  1  0  0  0  0
 18 43  1  0  0  0  0
 20 21  1  0  0  0  0
 21 22  2  0  0  0  0
 21 44  1  0  0  0  0
 22 23  1  0  0  0  0
 24 30  1  0  0  0  0
 24 25  1  0  0  0  0
 24 26  1  0  0  0  0
 25 45  1  0  0  0  0
 26 31  1  0  0  0  0
 26 27  1  0  0  0  0
 27 46  1  0  0  0  0
M  END
> <s_m_source_file>
AV-unprocessed.smi

> <i_m_source_file_index>
110

> <i_lp_mmshare_version>
43012

> <i_f3d_flags>
0

> <s_epik_input>
W09IXVtDSDJdW0NASF0xT1tDQEhdKFtDQEhdKFtPSF0pW0NAQEhdMVtPSF0pbihbY0hdbjIpYyhjMjMpbltjSF1uYzNOKFtDSDJdW0NIMl00KWMoYzQ1KVtjSF1bY0hdW2NIXVtjSF01

> <s_epik_cmdline>
J2VwaWtfcHl0aG9uJywgJy1waCcsICc3LjAnLCAnLXRuJywgJzgnLCAnLW1hJywgJzIwMCcsICctbWV0YWxfYmluZGluZycsICctaW1hZScsICc8aW5maWxlLm1hZT4nLCAnLW9tYWUnLCAnPG91dGZpbGUubWFlPic=

> <r_lp_tautomer_probability>
1

> <r_epik_Ionization_Penalty>
0.00068475

> <r_epik_Ionization_Penalty_Charging>
0

> <r_epik_Ionization_Penalty_Neutral>
0.00068475

> <r_epik_State_Penalty>
0.000417442

> <r_epik_Charging_Adjusted_Penalty>
0.000417442

> <i_epik_Tot_Q>
0

> <i_epik_Tot_abs_Q>
0

> <r_epik_Metal_State_Penalty>
-0

> <b_epik_Metal_Only>
0

> <s_epik_Chemistry_Notes>
This compound contains an acetal/aminal-like group ( X-CH(R)-Y where X, Y are N, S, or O) that may be acid/base labile, releasing an aldehyde.

> <s_lp_Force_Field>
OPLS_2005

> <r_lp_Energy>
69.6213

> <b_lp_Chiralities_Consistent>
1

> <s_lp_Variant>
AV-unprocessed.smi:110-3

> <Gold.Version>
5.8.1

> <Gold.Id.Protein>
6NUR|6NUR_protein|mol2

> <Gold.PLP.Fitness>
54.3689

> <Gold.PLP.PLP>
-45.5004

> <Gold.PLP.part.hbond>
-6.0000

> <Gold.PLP.part.metal>
0.0000

> <Gold.PLP.part.buried>
-2.4359

> <Gold.PLP.part.nonpolar>
-37.4939

> <Gold.PLP.part.repulsive>
0.1832

> <Gold.PLP.ligand.clash>
0.0000

> <Gold.PLP.ligand.torsion>
1.6131

> <Gold.PLP.Chemscore.Hbond>
4.0000

> <Gold.PLP.Chemscore.CHOScore>
0.0000

> <Gold.PLP.Chemscore.Metal>
0.0000

> <Gold.Chemscore.Hbonds>
donor molecule, donor type, donor heavy atom, donor atom, acceptor molecule, acceptor atom, score
      L1  H     1    32       P1 10175  1.00
      L1  H    25    45       P1  7957  1.00
      L1  H    27    46       P1 10171  1.00
      P1  H  7997  8009       L1    20  1.00

> <Gold.PLP.Chemscore.Internal.Correction>
0.0946

> <Gold.Rescore>
     Score         DG    S(hbond)    S(metal)    S(lipo)     H(rot)  DE(clash)    DE(int)     intcor
     19.85     -21.60       3.61        0.00     108.68       3.38       0.15       1.61       ----

> <Gold.Chemscore.Fitness>
19.8459

> <Gold.Chemscore.DG>
-21.6013

> <Gold.Chemscore.ZeroCoef>
-5.4800

> <Gold.Chemscore.Hbond>
3.6131

> <Gold.Chemscore.Metal>
0.0000

> <Gold.Chemscore.Lipo>
108.6822

> <Gold.Chemscore.Internal_Hbond>
0.0000

> <Gold.Chemscore.DEClash>
0.1495

> <Gold.Chemscore.DEInternal>
1.6059

> <Gold.Chemscore.Rot>
3.3837

> <Gold.Chemscore.Internal.Correction>
   9.000000E+99

> <Gold.Chemscore.Hbonds>
donor molecule, donor type, donor heavy atom, donor atom, acceptor molecule, acceptor atom, score
      L1  H     1    32       P1 10175  0.97
      L1  H    25    45       P1  7957  0.94
      L1  H    27    46       P1 10171  0.98
      P1  H  7997  8009       L1    20  0.59

> <Gold.Chemscore.Hbond.Weighted>
-12.0676

> <Gold.Chemscore.Metal.Weighted>
-0.0000

> <Gold.Chemscore.Lipo.Weighted>
-12.7158

> <Gold.Chemscore.Internal_Hbond.Weighted>
0.0000

> <Gold.Chemscore.DEClash.Weighted>
0.1495

> <Gold.Chemscore.DEInternal.Weighted>
1.6059

> <Gold.Chemscore.Rot.Weighted>
8.6622

> <Gold.Chemscore.Internal.Correction.Weighted>
   9.000000E+99

> <Gold.Protein.RotatedTorsions>
[ 6907 6896 6895 6894 ] final   21.24 input  -60.11 | X-H torsion
[ 7974 7965 7964 7962 ] final  129.19 input  175.53 | X-H torsion
[ 8008 7997 7996 7995 ] final -167.97 input   59.86 | X-H torsion
[ 10167 10162 10161 10158 ] final  -69.51 input  -65.29 | X-H torsion
[ 10718 10713 10712 10709 ] final   19.76 input   66.30 | X-H torsion
[ 10763 10752 10751 10750 ] final -139.40 input  -60.55 | X-H torsion
[ 11005 11000 10999 10996 ] final -130.33 input  -57.11 | X-H torsion

> <Gold.Protein.ActiveResidues>
 VAL166  LYS551  ARG553  GLY616  TRP617  ASP618  TYR619  PRO620  LYS621  CYS622 
 ASP623  PHE694  ASN695  SER759  ASP760  ASP761  ALA762  ILE779  LEU786  VAL792 
 PHE793  MET794  SER795  GLU796  ALA797  LYS798  CYS799  TRP800  GLU811  SER814 

> <Gold.Protein.RotatedAtoms>
  151.9087  135.0348  160.0512 H   0  0  0  0  0  0  0  0  0  0  0  0  # atno 6907 bound_to 6896
  152.2297  133.5044  159.5217 H   0  0  0  0  0  0  0  0  0  0  0  0  # atno 6908 bound_to 6896
  150.7022  134.1149  159.4056 H   0  0  0  0  0  0  0  0  0  0  0  0  # atno 6909 bound_to 6896
  145.0313  139.4043  143.5148 H   0  0  0  0  0  0  0  0  0  0  0  0  # atno 7974 bound_to 7965
  155.8850  140.1015  157.1459 H   0  0  0  0  0  0  0  0  0  0  0  0  # atno 8008 bound_to 7997
  154.4009  140.1322  156.4307 H   0  0  0  0  0  0  0  0  0  0  0  0  # atno 8009 bound_to 7997
  155.7600  140.3463  155.5195 H   0  0  0  0  0  0  0  0  0  0  0  0  # atno 8010 bound_to 7997
  140.5425  143.2314  151.7063 H   0  0  0  0  0  0  0  0  0  0  0  0  # atno 10167 bound_to 10162
  157.1150  130.6525  149.5908 H   0  0  0  0  0  0  0  0  0  0  0  0  # atno 10718 bound_to 10713
  154.8610  135.3583  154.5540 H   0  0  0  0  0  0  0  0  0  0  0  0  # atno 10763 bound_to 10752
  153.6158  135.7008  153.5334 H   0  0  0  0  0  0  0  0  0  0  0  0  # atno 10764 bound_to 10752
  153.3171  135.4162  155.1345 H   0  0  0  0  0  0  0  0  0  0  0  0  # atno 10765 bound_to 10752
  140.9355  134.1262  157.4197 H   0  0  0  0  0  0  0  0  0  0  0  0  # atno 11005 bound_to 11000
  146.3499  139.9865  142.8690 LP  0  0  0  0  0  0  0  0  0  0  0  0  # atno 17320 bound_to 7965
  145.1766  140.9747  143.4290 LP  0  0  0  0  0  0  0  0  0  0  0  0  # atno 17321 bound_to 7965
  139.4994  144.3947  152.0244 LP  0  0  0  0  0  0  0  0  0  0  0  0  # atno 17342 bound_to 10162
  140.3057  144.3596  150.6047 LP  0  0  0  0  0  0  0  0  0  0  0  0  # atno 17343 bound_to 10162
  155.9841  130.4865  150.6969 LP  0  0  0  0  0  0  0  0  0  0  0  0  # atno 17370 bound_to 10713
  157.4526  131.0874  151.0830 LP  0  0  0  0  0  0  0  0  0  0  0  0  # atno 17371 bound_to 10713
  139.8807  135.0019  156.6097 LP  0  0  0  0  0  0  0  0  0  0  0  0  # atno 17394 bound_to 11000
  140.7805  133.8664  155.8563 LP  0  0  0  0  0  0  0  0  0  0  0  0  # atno 17395 bound_to 11000

$$$$
