AV-unprocessed.smi:3228|AV-procd|sdf|12323|dock7
  -GOLD-   2272018173D 1   1.00000     0.00000
 Structure written by MMmdl.
 30 31  0  0  0  0  0  0  0  0  2 V2000
  151.6110  140.1554  156.7396 O   0  0  0  0  0  0  0  0  0  0  0  0
  150.7754  140.6883  156.0058 C   0  0  0  0  0  0  0  0  0  0  0  0
  149.9361  141.6042  156.5067 N   0  0  0  0  0  0  0  0  0  0  0  0
  149.9134  142.0552  157.8929 C   0  0  0  0  0  0  0  0  0  0  0  0
  151.2453  142.7231  158.2779 C   0  0  2  0  0  0  0  0  0  0  0  0
  152.0760  141.9218  159.2941 C   0  0  0  0  0  0  0  0  0  0  0  0
  152.8871  142.9480  160.1014 C   0  0  0  0  0  0  0  0  0  0  0  0
  152.4326  144.3315  159.6220 C   0  0  0  0  0  0  0  0  0  0  0  0
  151.0819  144.0917  158.9466 C   0  0  1  0  0  0  0  0  0  0  0  0
  150.7821  145.1125  158.0171 O   0  0  0  0  0  0  0  0  0  0  0  0
  150.5954  140.4479  154.6869 N   0  5  0  0  0  0  0  0  0  0  0  0
  149.3682  140.1743  154.2149 C   0  0  0  0  0  0  0  0  0  0  0  0
  148.9713  138.9391  153.8868 N   0  0  0  0  0  0  0  0  0  0  0  0
  147.6549  138.8832  153.4255 C   0  0  0  0  0  0  0  0  0  0  0  0
  147.0316  140.1028  153.4111 C   0  0  0  0  0  0  0  0  0  0  0  0
  148.0861  141.3658  153.9795 S   0  0  0  0  0  0  0  0  0  0  0  0
  149.2655  142.0183  155.8762 H   0  0  0  0  0  0  0  0  0  0  0  0
  149.0913  142.7605  158.0235 H   0  0  0  0  0  0  0  0  0  0  0  0
  149.7140  141.2062  158.5491 H   0  0  0  0  0  0  0  0  0  0  0  0
  151.8511  142.8512  157.3784 H   0  0  0  0  0  0  0  0  0  0  0  0
  151.4199  141.3708  159.9695 H   0  0  0  0  0  0  0  0  0  0  0  0
  152.7176  141.1906  158.8005 H   0  0  0  0  0  0  0  0  0  0  0  0
  152.6839  142.8274  161.1660 H   0  0  0  0  0  0  0  0  0  0  0  0
  153.9602  142.8173  159.9580 H   0  0  0  0  0  0  0  0  0  0  0  0
  152.3718  145.0582  160.4329 H   0  0  0  0  0  0  0  0  0  0  0  0
  153.1523  144.7092  158.8939 H   0  0  0  0  0  0  0  0  0  0  0  0
  150.2968  144.0490  159.7034 H   0  0  0  0  0  0  0  0  0  0  0  0
  150.2207  144.7526  157.3476 H   0  0  0  0  0  0  0  0  0  0  0  0
  147.2413  137.9309  153.1290 H   0  0  0  0  0  0  0  0  0  0  0  0
  146.0229  140.3346  153.1046 H   0  0  0  0  0  0  0  0  0  0  0  0
  1  2  2  0  0  0  0
  2  3  1  0  0  0  0
  2 11  1  0  0  0  0
  3  4  1  0  0  0  0
  3 17  1  0  0  0  0
  4  5  1  0  0  0  0
  4 18  1  0  0  0  0
  4 19  1  0  0  0  0
  5  9  1  0  0  0  0
  5  6  1  0  0  0  0
  5 20  1  0  0  0  0
  6  7  1  0  0  0  0
  6 21  1  0  0  0  0
  6 22  1  0  0  0  0
  7  8  1  0  0  0  0
  7 23  1  0  0  0  0
  7 24  1  0  0  0  0
  8  9  1  0  0  0  0
  8 25  1  0  0  0  0
  8 26  1  0  0  0  0
  9 10  1  0  0  0  0
  9 27  1  0  0  0  0
 10 28  1  0  0  0  0
 11 12  1  0  0  0  0
 12 16  1  0  0  0  0
 12 13  2  0  0  0  0
 13 14  1  0  0  0  0
 14 15  2  0  0  0  0
 14 29  1  0  0  0  0
 15 16  1  0  0  0  0
 15 30  1  0  0  0  0
M  CHG  1  11  -1
M  END
> <s_m_source_file>
AV-unprocessed.smi

> <i_m_source_file_index>
3228

> <i_lp_mmshare_version>
43012

> <i_f3d_flags>
0

> <s_epik_input>
czFbY0hdW2NIXW5jMVtOSF1DKD1PKVtOSF1bQ0gyXVtDQEBIXTJbQ0gyXVtDSDJdW0NIMl1bQ0BIXTJbT0hd

> <s_epik_cmdline>
J2VwaWtfcHl0aG9uJywgJy1waCcsICc3LjAnLCAnLXRuJywgJzgnLCAnLW1hJywgJzIwMCcsICctbWV0YWxfYmluZGluZycsICctaW1hZScsICc8aW5maWxlLm1hZT4nLCAnLW9tYWUnLCAnPG91dGZpbGUubWFlPic=

> <r_lp_tautomer_probability>
0.999

> <r_epik_Ionization_Penalty>
8.49756

> <r_epik_Ionization_Penalty_Charging>
6.79645

> <r_epik_Ionization_Penalty_Neutral>
1.70111

> <r_epik_State_Penalty>
6.79662

> <r_epik_Charging_Adjusted_Penalty>
13.5931

> <i_epik_Tot_Q>
-1

> <i_epik_Tot_abs_Q>
1

> <r_epik_Metal_State_Penalty>
2.71629

> <b_epik_Metal_Only>
1

> <s_lp_Force_Field>
OPLS_2005

> <r_lp_Energy>
18.1026

> <b_lp_Chiralities_Consistent>
1

> <s_lp_Variant>
AV-unprocessed.smi:3228-5

> <Gold.Version>
5.8.1

> <Gold.Id.Protein>
6NUR|6NUR_protein|mol2

> <Gold.PLP.Fitness>
38.5307

> <Gold.PLP.PLP>
-31.2367

> <Gold.PLP.part.hbond>
-3.0000

> <Gold.PLP.part.metal>
0.0000

> <Gold.PLP.part.buried>
-1.4576

> <Gold.PLP.part.nonpolar>
-27.0106

> <Gold.PLP.part.repulsive>
0.7165

> <Gold.PLP.ligand.clash>
0.0000

> <Gold.PLP.ligand.torsion>
1.8626

> <Gold.PLP.Chemscore.Hbond>
1.9425

> <Gold.PLP.Chemscore.CHOScore>
1.7277

> <Gold.PLP.Chemscore.Metal>
0.0000

> <Gold.Chemscore.Hbonds>
donor molecule, donor type, donor heavy atom, donor atom, acceptor molecule, acceptor atom, score
      L1  H    10    28       P1  8028  0.80
      P1  H  7989  7998       L1    11  1.00
      L1  C    14    29       P1  7948  0.38
      L1  C    15    30       P1 10175  1.00

> <Gold.PLP.Chemscore.Internal.Correction>
0.0085

> <Gold.Rescore>
     Score         DG    S(hbond)    S(metal)    S(lipo)     H(rot)  DE(clash)    DE(int)     intcor
     12.41     -15.74       1.64        0.00      81.22       1.85       1.37       1.96       ----

> <Gold.Chemscore.Fitness>
12.4118

> <Gold.Chemscore.DG>
-15.7418

> <Gold.Chemscore.ZeroCoef>
-5.4800

> <Gold.Chemscore.Hbond>
1.6437

> <Gold.Chemscore.Metal>
0.0000

> <Gold.Chemscore.Lipo>
81.2241

> <Gold.Chemscore.Internal_Hbond>
0.0000

> <Gold.Chemscore.DEClash>
1.3699

> <Gold.Chemscore.DEInternal>
1.9601

> <Gold.Chemscore.Rot>
1.8481

> <Gold.Chemscore.Internal.Correction>
   9.000000E+99

> <Gold.Chemscore.Hbonds>
donor molecule, donor type, donor heavy atom, donor atom, acceptor molecule, acceptor atom, score
      L1  H    10    28       P1  8028  0.20
      P1  H  7989  7998       L1    11  0.79

> <Gold.Chemscore.Hbond.Weighted>
-5.4899

> <Gold.Chemscore.Metal.Weighted>
-0.0000

> <Gold.Chemscore.Lipo.Weighted>
-9.5032

> <Gold.Chemscore.Internal_Hbond.Weighted>
0.0000

> <Gold.Chemscore.DEClash.Weighted>
1.3699

> <Gold.Chemscore.DEInternal.Weighted>
1.9601

> <Gold.Chemscore.Rot.Weighted>
4.7313

> <Gold.Chemscore.Internal.Correction.Weighted>
   9.000000E+99

> <Gold.Protein.RotatedTorsions>
[ 6907 6896 6895 6894 ] final -118.95 input  -60.11 | X-H torsion
[ 7974 7965 7964 7962 ] final -172.23 input  175.53 | X-H torsion
[ 8008 7997 7996 7995 ] final  -96.88 input   59.86 | X-H torsion
[ 10167 10162 10161 10158 ] final  160.21 input  -65.29 | X-H torsion
[ 10718 10713 10712 10709 ] final   80.26 input   66.30 | X-H torsion
[ 10763 10752 10751 10750 ] final -150.24 input  -60.55 | X-H torsion
[ 11005 11000 10999 10996 ] final  140.48 input  -57.11 | X-H torsion

> <Gold.Protein.ActiveResidues>
 VAL166  LYS551  ARG553  GLY616  TRP617  ASP618  TYR619  PRO620  LYS621  CYS622 
 ASP623  PHE694  ASN695  SER759  ASP760  ASP761  ALA762  ILE779  LEU786  VAL792 
 PHE793  MET794  SER795  GLU796  ALA797  LYS798  CYS799  TRP800  GLU811  SER814 

> <Gold.Protein.RotatedAtoms>
  150.8263  133.8165  159.3116 H   0  0  0  0  0  0  0  0  0  0  0  0  # atno 6907 bound_to 6896
  151.5909  135.1052  160.0048 H   0  0  0  0  0  0  0  0  0  0  0  0  # atno 6908 bound_to 6896
  152.4348  133.7300  159.6638 H   0  0  0  0  0  0  0  0  0  0  0  0  # atno 6909 bound_to 6896
  144.7148  140.1804  143.6359 H   0  0  0  0  0  0  0  0  0  0  0  0  # atno 7974 bound_to 7965
  154.7803  140.0467  157.1122 H   0  0  0  0  0  0  0  0  0  0  0  0  # atno 8008 bound_to 7997
  154.9713  140.3090  155.4967 H   0  0  0  0  0  0  0  0  0  0  0  0  # atno 8009 bound_to 7997
  156.2935  140.2253  156.4805 H   0  0  0  0  0  0  0  0  0  0  0  0  # atno 8010 bound_to 7997
  139.4838  144.4656  151.8646 H   0  0  0  0  0  0  0  0  0  0  0  0  # atno 10167 bound_to 10162
  157.6801  130.9951  150.2054 H   0  0  0  0  0  0  0  0  0  0  0  0  # atno 10718 bound_to 10713
  154.8130  135.3289  154.7252 H   0  0  0  0  0  0  0  0  0  0  0  0  # atno 10763 bound_to 10752
  153.7898  135.6912  153.4878 H   0  0  0  0  0  0  0  0  0  0  0  0  # atno 10764 bound_to 10752
  153.1924  135.4546  155.0113 H   0  0  0  0  0  0  0  0  0  0  0  0  # atno 10765 bound_to 10752
  140.0330  134.9342  157.0699 H   0  0  0  0  0  0  0  0  0  0  0  0  # atno 11005 bound_to 11000
  145.8862  139.2350  143.1576 LP  0  0  0  0  0  0  0  0  0  0  0  0  # atno 17320 bound_to 7965
  145.9948  140.8572  143.0048 LP  0  0  0  0  0  0  0  0  0  0  0  0  # atno 17321 bound_to 7965
  140.4121  144.2355  150.5888 LP  0  0  0  0  0  0  0  0  0  0  0  0  # atno 17342 bound_to 10162
  140.4956  143.2333  151.8755 LP  0  0  0  0  0  0  0  0  0  0  0  0  # atno 17343 bound_to 10162
  156.2736  130.3725  149.8006 LP  0  0  0  0  0  0  0  0  0  0  0  0  # atno 17370 bound_to 10713
  156.5716  130.8427  151.3358 LP  0  0  0  0  0  0  0  0  0  0  0  0  # atno 17371 bound_to 10713
  140.4194  134.1897  155.7164 LP  0  0  0  0  0  0  0  0  0  0  0  0  # atno 17394 bound_to 11000
  141.1842  133.8349  157.1149 LP  0  0  0  0  0  0  0  0  0  0  0  0  # atno 17395 bound_to 11000

$$$$
