#       Name:                AV-unprocessed.smi:1821
#       Creating user name   scv26
#       Creation time:       Fri Mar 27 09:05:38 2020


#       File generated by GOLD software.
#

@<TRIPOS>MOLECULE
AV-unprocessed.smi:1821
    38    40     1
SMALL
NO_CHARGES


@<TRIPOS>ATOM
      1 ****        -1.4101  -0.0960  -3.1183 C.3            1 S1                 0.0000
      2 ****        -1.5222   0.9221  -2.0282 C.2            1 S1                 0.0000
      3 ****        -2.0313   2.1361  -2.2397 N.2            1 S1                 0.0000
      4 ****        -1.9425   2.7230  -0.9921 C.ar           1 S1                 0.0000
      5 ****        -2.3188   4.0131  -0.5546 C.ar           1 S1                 0.0000
      6 ****        -2.1288   4.3947   0.7899 C.ar           1 S1                 0.0000
      7 ****        -1.5614   3.4938   1.7145 C.ar           1 S1                 0.0000
      8 ****        -1.1805   2.2031   1.2999 C.ar           1 S1                 0.0000
      9 ****        -1.3721   1.8277  -0.0433 C.ar           1 S1                 0.0000
     10 ****        -1.1127   0.6650  -0.7612 N.pl3          1 S1                 0.0000
     11 ****        -0.5246  -0.5581  -0.2322 C.3            1 S1                 0.0000
     12 ****         1.0030  -0.4514  -0.0478 C.3            1 S1                 0.0000
     13 ****         1.6249  -0.1191  -1.2749 O.3            1 S1                 0.0000
     14 ****         1.5785  -1.7196   0.5736 C.ar           1 S1                 0.0000
     15 ****         1.7242  -2.9004  -0.1938 C.ar           1 S1                 0.0000
     16 ****         1.3509  -2.9273  -1.4959 F              1 S1                 0.0000
     17 ****         2.2550  -4.0666   0.3904 C.ar           1 S1                 0.0000
     18 ****         2.6386  -4.0681   1.7441 C.ar           1 S1                 0.0000
     19 ****         2.4871  -2.9018   2.5162 C.ar           1 S1                 0.0000
     20 ****         1.9578  -1.7324   1.9364 C.ar           1 S1                 0.0000
     21 ****         1.8143  -0.6235   2.7016 F              1 S1                 0.0000
     22 ****        -1.7018   0.3356  -4.0763 H              1 S1                 0.0000
     23 ****        -2.0631  -0.9437  -2.9098 H              1 S1                 0.0000
     24 ****        -0.3835  -0.4525  -3.2023 H              1 S1                 0.0000
     25 ****        -2.7546   4.7103  -1.2548 H              1 S1                 0.0000
     26 ****        -2.4205   5.3833   1.1131 H              1 S1                 0.0000
     27 ****        -1.4191   3.7941   2.7423 H              1 S1                 0.0000
     28 ****        -0.7458   1.5102   2.0049 H              1 S1                 0.0000
     29 ****        -0.9981  -0.7679   0.7278 H              1 S1                 0.0000
     30 ****        -0.7784  -1.3954  -0.8818 H              1 S1                 0.0000
     31 ****         1.2089   0.3867   0.6181 H              1 S1                 0.0000
     32 ****         2.5390   0.0553  -1.1108 H              1 S1                 0.0000
     33 ****         2.3659  -4.9631  -0.2018 H              1 S1                 0.0000
     34 ****         3.0448  -4.9637   2.1903 H              1 S1                 0.0000
     35 ****         2.7767  -2.9039   3.5567 H              1 S1                 0.0000
     36 ****        -2.3882   2.5248  -3.0891 LP             1 S1                 0.0000
     37 ****         1.1910   0.6937  -1.6636 LP             1 S1                 0.0000
     38 ****         1.5369  -0.8823  -1.9151 LP             1 S1                 0.0000
@<TRIPOS>BOND
    1    1    2 1     
    2    1   22 1     
    3    1   23 1     
    4    1   24 1     
    5    2   10 1     
    6    2    3 2     
    7    3    4 1     
    8    4    9 ar    
    9    4    5 ar    
   10    5    6 ar    
   11    5   25 1     
   12    6    7 ar    
   13    6   26 1     
   14    7    8 ar    
   15    7   27 1     
   16    8    9 ar    
   17    8   28 1     
   18    9   10 1     
   19   10   11 1     
   20   11   12 1     
   21   11   29 1     
   22   11   30 1     
   23   12   13 1     
   24   12   14 1     
   25   12   31 1     
   26   13   32 1     
   27   14   20 ar    
   28   14   15 ar    
   29   15   16 1     
   30   15   17 ar    
   31   17   18 ar    
   32   17   33 1     
   33   18   19 ar    
   34   18   34 1     
   35   19   20 ar    
   36   19   35 1     
   37   20   21 1     
   38    3   36 1     
   39   13   37 1     
   40   13   38 1     
@<TRIPOS>SUBSTRUCTURE
      1 S1             1
@<TRIPOS>SET
LONE_PAIRS      STATIC     ATOMS    <user>   **** ""
3 36 37 38
DONOR_HYDROGENS      STATIC     ATOMS    <user>   **** ""
1 32
ATOM$BLUE        STATIC     ATOMS    COLORGROUP SYSTEM
3 36 37 38
ATOM$RED        STATIC     ATOMS    COLORGROUP SYSTEM
1 32
