AV-unprocessed.smi:1048|AV-procd|sdf|4607|dock1
  -GOLD-   22720 3103D 1   1.00000     0.00000
 Structure written by MMmdl.
 46 47  0  0  0  0  0  0  0  0  2 V2000
  147.2299  132.1189  154.9987 C   0  0  0  0  0  0  0  0  0  0  0  0
  147.5721  132.9788  153.7694 C   0  0  2  0  0  0  0  0  0  0  0  0
  149.0878  133.1782  153.5836 C   0  0  0  0  0  0  0  0  0  0  0  0
  149.6758  134.1688  154.6045 C   0  0  0  0  0  0  0  0  0  0  0  0
  148.9652  135.4736  154.5557 N   0  3  2  0  0  0  0  0  0  0  0  0
  149.5815  136.5100  155.4234 C   0  0  0  0  0  0  0  0  0  0  0  0
  151.0435  136.8097  155.0333 C   0  0  1  0  0  0  0  0  0  0  0  0
  151.0007  137.6880  153.9255 O   0  0  0  0  0  0  0  0  0  0  0  0
  151.8017  137.5069  156.1815 C   0  0  0  0  0  0  0  0  0  0  0  0
  151.3580  138.8838  156.3780 N   0  0  0  0  0  0  0  0  0  0  0  0
  151.8710  139.7358  157.2771 C   0  0  0  0  0  0  0  0  0  0  0  0
  152.7628  139.4284  158.0670 O   0  0  0  0  0  0  0  0  0  0  0  0
  151.2715  140.9369  157.2098 N   0  0  0  0  0  0  0  0  0  0  0  0
  151.5531  142.1088  157.9634 C   0  0  0  0  0  0  0  0  0  0  0  0
  152.1477  141.9520  159.2324 C   0  0  0  0  0  0  0  0  0  0  0  0
  152.4205  143.0940  160.0093 C   0  0  0  0  0  0  0  0  0  0  0  0
  152.0775  144.3561  159.4874 C   0  0  0  0  0  0  0  0  0  0  0  0
  151.4936  144.5241  158.2823 N   0  0  0  0  0  0  0  0  0  0  0  0
  151.2361  143.4245  157.5417 C   0  0  0  0  0  0  0  0  0  0  0  0
  147.5100  135.3152  154.8058 C   0  0  0  0  0  0  0  0  0  0  0  0
  146.8729  134.3503  153.7896 C   0  0  0  0  0  0  0  0  0  0  0  0
  147.5575  132.5806  155.9298 H   0  0  0  0  0  0  0  0  0  0  0  0
  147.7031  131.1390  154.9323 H   0  0  0  0  0  0  0  0  0  0  0  0
  146.1543  131.9565  155.0731 H   0  0  0  0  0  0  0  0  0  0  0  0
  147.2027  132.4335  152.8997 H   0  0  0  0  0  0  0  0  0  0  0  0
  149.6057  132.2206  153.6490 H   0  0  0  0  0  0  0  0  0  0  0  0
  149.2773  133.5550  152.5776 H   0  0  0  0  0  0  0  0  0  0  0  0
  149.6163  133.7562  155.6126 H   0  0  0  0  0  0  0  0  0  0  0  0
  150.7345  134.3093  154.3894 H   0  0  0  0  0  0  0  0  0  0  0  0
  149.0112  137.4382  155.3575 H   0  0  0  0  0  0  0  0  0  0  0  0
  149.5162  136.1913  156.4647 H   0  0  0  0  0  0  0  0  0  0  0  0
  151.5617  135.8925  154.7525 H   0  0  0  0  0  0  0  0  0  0  0  0
  151.0486  137.1745  153.1322 H   0  0  0  0  0  0  0  0  0  0  0  0
  151.7464  136.9320  157.1081 H   0  0  0  0  0  0  0  0  0  0  0  0
  152.8611  137.5684  155.9304 H   0  0  0  0  0  0  0  0  0  0  0  0
  150.6223  139.2171  155.7722 H   0  0  0  0  0  0  0  0  0  0  0  0
  150.4951  141.0121  156.5691 H   0  0  0  0  0  0  0  0  0  0  0  0
  152.3969  140.9699  159.6074 H   0  0  0  0  0  0  0  0  0  0  0  0
  152.8809  143.0051  160.9822 H   0  0  0  0  0  0  0  0  0  0  0  0
  152.2718  145.2539  160.0552 H   0  0  0  0  0  0  0  0  0  0  0  0
  150.7451  143.6221  156.6020 H   0  0  0  0  0  0  0  0  0  0  0  0
  147.3475  134.9648  155.8260 H   0  0  0  0  0  0  0  0  0  0  0  0
  147.0176  136.2851  154.7250 H   0  0  0  0  0  0  0  0  0  0  0  0
  146.9331  134.7957  152.7956 H   0  0  0  0  0  0  0  0  0  0  0  0
  145.8099  134.2306  154.0017 H   0  0  0  0  0  0  0  0  0  0  0  0
  149.0471  135.8203  153.6102 H   0  0  0  0  0  0  0  0  0  0  0  0
  1  2  1  0  0  0  0
  1 22  1  0  0  0  0
  1 23  1  0  0  0  0
  1 24  1  0  0  0  0
  2 21  1  0  0  0  0
  2  3  1  0  0  0  0
  2 25  1  0  0  0  0
  3  4  1  0  0  0  0
  3 26  1  0  0  0  0
  3 27  1  0  0  0  0
  4  5  1  0  0  0  0
  4 28  1  0  0  0  0
  4 29  1  0  0  0  0
  5  6  1  0  0  0  0
  5 20  1  0  0  0  0
  5 46  1  0  0  0  0
  6  7  1  0  0  0  0
  6 30  1  0  0  0  0
  6 31  1  0  0  0  0
  7  8  1  0  0  0  0
  7  9  1  0  0  0  0
  7 32  1  0  0  0  0
  8 33  1  0  0  0  0
  9 10  1  0  0  0  0
  9 34  1  0  0  0  0
  9 35  1  0  0  0  0
 10 11  1  0  0  0  0
 10 36  1  0  0  0  0
 11 12  2  0  0  0  0
 11 13  1  0  0  0  0
 13 14  1  0  0  0  0
 13 37  1  0  0  0  0
 14 19  1  0  0  0  0
 14 15  2  0  0  0  0
 15 16  1  0  0  0  0
 15 38  1  0  0  0  0
 16 17  2  0  0  0  0
 16 39  1  0  0  0  0
 17 18  1  0  0  0  0
 17 40  1  0  0  0  0
 18 19  2  0  0  0  0
 19 41  1  0  0  0  0
 20 21  1  0  0  0  0
 20 42  1  0  0  0  0
 20 43  1  0  0  0  0
 21 44  1  0  0  0  0
 21 45  1  0  0  0  0
M  CHG  1   5   1
M  END
> <s_m_source_file>
AV-unprocessed.smi

> <i_m_source_file_index>
1048

> <i_lp_mmshare_version>
43012

> <i_f3d_flags>
0

> <s_epik_input>
W0NIM11bQ0hdMVtDSDJdW0NIMl1OKFtDSDJdW0NIMl0xKVtDSDJdW0NASF0oW09IXSlbQ0gyXVtOSF1DKD1PKVtOSF1jMltjSF1bY0hdW2NIXW5bY0hdMg==

> <s_epik_cmdline>
J2VwaWtfcHl0aG9uJywgJy1waCcsICc3LjAnLCAnLXRuJywgJzgnLCAnLW1hJywgJzIwMCcsICctbWV0YWxfYmluZGluZycsICctaW1hZScsICc8aW5maWxlLm1hZT4nLCAnLW9tYWUnLCAnPG91dGZpbGUubWFlPic=

> <r_lp_tautomer_probability>
1

> <r_epik_Ionization_Penalty>
0.00581049

> <r_epik_Ionization_Penalty_Charging>
0.00147689

> <r_epik_Ionization_Penalty_Neutral>
0.0043336

> <r_epik_State_Penalty>
-0

> <r_epik_Charging_Adjusted_Penalty>
0.00147689

> <i_epik_Tot_Q>
1

> <i_epik_Tot_abs_Q>
1

> <r_epik_Metal_State_Penalty>
-0

> <b_epik_Metal_Only>
0

> <s_lp_Force_Field>
OPLS_2005

> <r_lp_Energy>
24.6749

> <b_lp_Chiralities_Consistent>
1

> <s_lp_Variant>
AV-unprocessed.smi:1048-4

> <Gold.Version>
5.8.1

> <Gold.Id.Protein>
6NUR|6NUR_protein|mol2

> <Gold.PLP.Fitness>
49.4745

> <Gold.PLP.PLP>
-35.1462

> <Gold.PLP.part.hbond>
-3.5157

> <Gold.PLP.part.metal>
0.0000

> <Gold.PLP.part.buried>
-4.7358

> <Gold.PLP.part.nonpolar>
-27.0681

> <Gold.PLP.part.repulsive>
0.3061

> <Gold.PLP.ligand.clash>
0.0000

> <Gold.PLP.ligand.torsion>
0.4092

> <Gold.PLP.Chemscore.Hbond>
4.0000

> <Gold.PLP.Chemscore.CHOScore>
1.0000

> <Gold.PLP.Chemscore.Metal>
0.0000

> <Gold.Chemscore.Hbonds>
donor molecule, donor type, donor heavy atom, donor atom, acceptor molecule, acceptor atom, score
      L1  H     5    46       P1  7948  2.00
      L1  H     8    33       P1  7949  1.00
      P1  H  7997  8010       L1    12  0.51
      L1  C    19    41       P1  8028  1.00

> <Gold.PLP.Chemscore.Internal.Correction>
0.1467

> <Gold.Rescore>
     Score         DG    S(hbond)    S(metal)    S(lipo)     H(rot)  DE(clash)    DE(int)     intcor
     15.82     -17.82       2.02        0.00      97.81       2.29       0.33       1.68       ----

> <Gold.Chemscore.Fitness>
15.8154

> <Gold.Chemscore.DG>
-17.8201

> <Gold.Chemscore.ZeroCoef>
-5.4800

> <Gold.Chemscore.Hbond>
2.0211

> <Gold.Chemscore.Metal>
0.0000

> <Gold.Chemscore.Lipo>
97.8056

> <Gold.Chemscore.Internal_Hbond>
0.0000

> <Gold.Chemscore.DEClash>
0.3256

> <Gold.Chemscore.DEInternal>
1.6791

> <Gold.Chemscore.Rot>
2.2865

> <Gold.Chemscore.Internal.Correction>
   9.000000E+99

> <Gold.Chemscore.Hbonds>
donor molecule, donor type, donor heavy atom, donor atom, acceptor molecule, acceptor atom, score
      L1  H     5    46       P1  7948  0.88
      L1  H     8    33       P1  7949  0.32
      P1  H  7997  8010       L1    12  0.09

> <Gold.Chemscore.Hbond.Weighted>
-6.7504

> <Gold.Chemscore.Metal.Weighted>
-0.0000

> <Gold.Chemscore.Lipo.Weighted>
-11.4433

> <Gold.Chemscore.Internal_Hbond.Weighted>
0.0000

> <Gold.Chemscore.DEClash.Weighted>
0.3256

> <Gold.Chemscore.DEInternal.Weighted>
1.6791

> <Gold.Chemscore.Rot.Weighted>
5.8536

> <Gold.Chemscore.Internal.Correction.Weighted>
   9.000000E+99

> <Gold.Protein.RotatedTorsions>
[ 6907 6896 6895 6894 ] final   56.10 input  -60.11 | X-H torsion
[ 7974 7965 7964 7962 ] final   15.24 input  175.53 | X-H torsion
[ 8008 7997 7996 7995 ] final   49.51 input   59.86 | X-H torsion
[ 10167 10162 10161 10158 ] final  124.55 input  -65.29 | X-H torsion
[ 10718 10713 10712 10709 ] final    1.30 input   66.30 | X-H torsion
[ 10763 10752 10751 10750 ] final  -69.38 input  -60.55 | X-H torsion
[ 11005 11000 10999 10996 ] final -114.76 input  -57.11 | X-H torsion

> <Gold.Protein.ActiveResidues>
 VAL166  LYS551  ARG553  GLY616  TRP617  ASP618  TYR619  PRO620  LYS621  CYS622 
 ASP623  PHE694  ASN695  SER759  ASP760  ASP761  ALA762  ILE779  LEU786  VAL792 
 PHE793  MET794  SER795  GLU796  ALA797  LYS798  CYS799  TRP800  GLU811  SER814 

> <Gold.Protein.RotatedAtoms>
  152.3603  134.6881  160.0208 H   0  0  0  0  0  0  0  0  0  0  0  0  # atno 6907 bound_to 6896
  151.7206  133.3309  159.3322 H   0  0  0  0  0  0  0  0  0  0  0  0  # atno 6908 bound_to 6896
  150.7600  134.6385  159.6269 H   0  0  0  0  0  0  0  0  0  0  0  0  # atno 6909 bound_to 6896
  146.2284  139.8923  142.8552 H   0  0  0  0  0  0  0  0  0  0  0  0  # atno 7974 bound_to 7965
  155.4034  140.3439  155.4258 H   0  0  0  0  0  0  0  0  0  0  0  0  # atno 8008 bound_to 7997
  156.1490  140.1565  156.8832 H   0  0  0  0  0  0  0  0  0  0  0  0  # atno 8009 bound_to 7997
  154.5036  140.0808  156.7829 H   0  0  0  0  0  0  0  0  0  0  0  0  # atno 8010 bound_to 7997
  139.5735  144.6951  151.3715 H   0  0  0  0  0  0  0  0  0  0  0  0  # atno 10167 bound_to 10162
  156.8462  130.5538  149.5673 H   0  0  0  0  0  0  0  0  0  0  0  0  # atno 10718 bound_to 10713
  154.4026  135.6027  153.5906 H   0  0  0  0  0  0  0  0  0  0  0  0  # atno 10763 bound_to 10752
  152.9788  135.5910  154.4166 H   0  0  0  0  0  0  0  0  0  0  0  0  # atno 10764 bound_to 10752
  154.3966  135.2842  155.2100 H   0  0  0  0  0  0  0  0  0  0  0  0  # atno 10765 bound_to 10752
  141.0531  133.9656  157.2802 H   0  0  0  0  0  0  0  0  0  0  0  0  # atno 11005 bound_to 11000
  145.2405  141.0007  143.3938 LP  0  0  0  0  0  0  0  0  0  0  0  0  # atno 17320 bound_to 7965
  144.9456  139.4140  143.6427 LP  0  0  0  0  0  0  0  0  0  0  0  0  # atno 17321 bound_to 7965
  140.7019  143.7611  150.7417 LP  0  0  0  0  0  0  0  0  0  0  0  0  # atno 17342 bound_to 10162
  140.1124  143.4687  152.2362 LP  0  0  0  0  0  0  0  0  0  0  0  0  # atno 17343 bound_to 10162
  156.0853  130.5853  150.9637 LP  0  0  0  0  0  0  0  0  0  0  0  0  # atno 17370 bound_to 10713
  157.6329  131.0919  150.8406 LP  0  0  0  0  0  0  0  0  0  0  0  0  # atno 17371 bound_to 10713
  139.9367  135.0195  156.8578 LP  0  0  0  0  0  0  0  0  0  0  0  0  # atno 17394 bound_to 11000
  140.6017  134.0166  155.7540 LP  0  0  0  0  0  0  0  0  0  0  0  0  # atno 17395 bound_to 11000

$$$$
