AV-unprocessed.smi:1172|AV-procd|sdf|4943|dock4
  -GOLD-   22720 3533D 1   1.00000     0.00000
 Structure written by MMmdl.
 36 37  0  0  0  0  0  0  0  0  1 V2000
  149.3909  135.8534  154.5306 N   0  0  0  0  0  0  0  0  0  0  0  0
  149.8009  136.9756  155.1279 C   0  0  0  0  0  0  0  0  0  0  0  0
  150.0363  137.0298  156.3330 O   0  0  0  0  0  0  0  0  0  0  0  0
  149.9737  138.2143  154.2466 C   0  0  0  0  0  0  0  0  0  0  0  0
  150.2894  139.3852  155.0456 N   0  0  0  0  0  0  0  0  0  0  0  0
  151.2635  139.5188  156.0160 C   0  0  0  0  0  0  0  0  0  0  0  0
  151.1581  140.8021  156.4728 C   0  0  0  0  0  0  0  0  0  0  0  0
  151.9137  141.4697  157.4698 N   0  0  0  0  0  0  0  0  0  0  0  0
  151.7214  142.7091  157.9609 C   0  0  0  0  0  0  0  0  0  0  0  0
  150.8542  143.4731  157.5352 O   0  0  0  0  0  0  0  0  0  0  0  0
  152.5970  143.0649  158.9361 N   0  0  0  0  0  0  0  0  0  0  0  0
  153.5219  142.1627  159.6461 C   0  0  0  0  0  0  0  0  0  0  0  0
  152.9602  141.8834  161.0525 C   0  0  0  0  0  0  0  0  0  0  0  0
  152.7352  143.1972  161.8244 C   0  0  0  0  0  0  0  0  0  0  0  0
  151.9254  144.2116  160.9916 C   0  0  1  0  0  0  0  0  0  0  0  0
  151.9037  145.4568  161.6561 O   0  0  0  0  0  0  0  0  0  0  0  0
  152.5375  144.3809  159.5872 C   0  0  0  0  0  0  0  0  0  0  0  0
  150.1001  141.3905  155.7326 C   0  0  0  0  0  0  0  0  0  0  0  0
  149.5809  140.5292  154.8712 N   0  0  0  0  0  0  0  0  0  0  0  0
  149.2645  135.0142  155.0778 H   0  0  0  0  0  0  0  0  0  0  0  0
  149.2085  135.8454  153.5376 H   0  0  0  0  0  0  0  0  0  0  0  0
  150.7723  138.0606  153.5194 H   0  0  0  0  0  0  0  0  0  0  0  0
  149.0574  138.3933  153.6817 H   0  0  0  0  0  0  0  0  0  0  0  0
  151.9210  138.7044  156.2821 H   0  0  0  0  0  0  0  0  0  0  0  0
  152.6745  140.9413  157.8711 H   0  0  0  0  0  0  0  0  0  0  0  0
  153.7084  141.2208  159.1305 H   0  0  0  0  0  0  0  0  0  0  0  0
  154.4982  142.6430  159.7257 H   0  0  0  0  0  0  0  0  0  0  0  0
  152.0171  141.3418  160.9675 H   0  0  0  0  0  0  0  0  0  0  0  0
  153.6402  141.2369  161.6076 H   0  0  0  0  0  0  0  0  0  0  0  0
  152.2340  142.9959  162.7718 H   0  0  0  0  0  0  0  0  0  0  0  0
  153.7068  143.6263  162.0743 H   0  0  0  0  0  0  0  0  0  0  0  0
  150.8960  143.8629  160.8963 H   0  0  0  0  0  0  0  0  0  0  0  0
  151.9631  146.1439  161.0104 H   0  0  0  0  0  0  0  0  0  0  0  0
  153.5462  144.7913  159.6590 H   0  0  0  0  0  0  0  0  0  0  0  0
  151.9650  145.1090  159.0101 H   0  0  0  0  0  0  0  0  0  0  0  0
  149.6997  142.3919  155.7891 H   0  0  0  0  0  0  0  0  0  0  0  0
  1  2  1  0  0  0  0
  1 20  1  0  0  0  0
  1 21  1  0  0  0  0
  2  3  2  0  0  0  0
  2  4  1  0  0  0  0
  4  5  1  0  0  0  0
  4 22  1  0  0  0  0
  4 23  1  0  0  0  0
  5 19  1  0  0  0  0
  5  6  1  0  0  0  0
  6  7  2  0  0  0  0
  6 24  1  0  0  0  0
  7  8  1  0  0  0  0
  7 18  1  0  0  0  0
  8  9  1  0  0  0  0
  8 25  1  0  0  0  0
  9 10  2  0  0  0  0
  9 11  1  0  0  0  0
 11 17  1  0  0  0  0
 11 12  1  0  0  0  0
 12 13  1  0  0  0  0
 12 26  1  0  0  0  0
 12 27  1  0  0  0  0
 13 14  1  0  0  0  0
 13 28  1  0  0  0  0
 13 29  1  0  0  0  0
 14 15  1  0  0  0  0
 14 30  1  0  0  0  0
 14 31  1  0  0  0  0
 15 16  1  0  0  0  0
 15 17  1  0  0  0  0
 15 32  1  0  0  0  0
 16 33  1  0  0  0  0
 17 34  1  0  0  0  0
 17 35  1  0  0  0  0
 18 19  2  0  0  0  0
 18 36  1  0  0  0  0
M  END
> <s_m_source_file>
AV-unprocessed.smi

> <i_m_source_file_index>
1172

> <i_lp_mmshare_version>
43012

> <i_f3d_flags>
0

> <s_epik_input>
W05IMl1DKD1PKVtDSDJdbjFbY0hdYyhbY0hdbjEpW05IXUMoPU8pTjJbQ0gyXVtDSDJdW0NIMl1bQ0BASF0oW09IXSlbQ0gyXTI=

> <s_epik_cmdline>
J2VwaWtfcHl0aG9uJywgJy1waCcsICc3LjAnLCAnLXRuJywgJzgnLCAnLW1hJywgJzIwMCcsICctbWV0YWxfYmluZGluZycsICctaW1hZScsICc8aW5maWxlLm1hZT4nLCAnLW9tYWUnLCAnPG91dGZpbGUubWFlPic=

> <r_lp_tautomer_probability>
1

> <r_epik_Ionization_Penalty>
4.44977e-05

> <r_epik_Ionization_Penalty_Charging>
0

> <r_epik_Ionization_Penalty_Neutral>
4.44977e-05

> <r_epik_State_Penalty>
-0

> <r_epik_Charging_Adjusted_Penalty>
0

> <i_epik_Tot_Q>
0

> <i_epik_Tot_abs_Q>
0

> <r_epik_Metal_State_Penalty>
-0

> <b_epik_Metal_Only>
0

> <s_lp_Force_Field>
OPLS_2005

> <r_lp_Energy>
33.3056

> <b_lp_Chiralities_Consistent>
1

> <s_lp_Variant>
AV-unprocessed.smi:1172-1

> <Gold.Version>
5.8.1

> <Gold.Id.Protein>
6NUR|6NUR_protein|mol2

> <Gold.PLP.Fitness>
42.9476

> <Gold.PLP.PLP>
-37.2313

> <Gold.PLP.part.hbond>
-2.1377

> <Gold.PLP.part.metal>
0.0000

> <Gold.PLP.part.buried>
-1.3306

> <Gold.PLP.part.nonpolar>
-34.6416

> <Gold.PLP.part.repulsive>
1.1958

> <Gold.PLP.ligand.clash>
0.0000

> <Gold.PLP.ligand.torsion>
0.1586

> <Gold.PLP.Chemscore.Hbond>
1.0000

> <Gold.PLP.Chemscore.CHOScore>
0.9967

> <Gold.PLP.Chemscore.Metal>
0.0000

> <Gold.Chemscore.Hbonds>
donor molecule, donor type, donor heavy atom, donor atom, acceptor molecule, acceptor atom, score
      L1  H     1    21       P1  7948  1.00
      L1  C    18    36       P1  8028  1.00

> <Gold.PLP.Chemscore.Internal.Correction>
0.0434

> <Gold.Rescore>
     Score         DG    S(hbond)    S(metal)    S(lipo)     H(rot)  DE(clash)    DE(int)     intcor
      8.57     -13.00       1.00        0.00      83.85       2.20       1.78       2.65       ----

> <Gold.Chemscore.Fitness>
8.5667

> <Gold.Chemscore.DG>
-13.0024

> <Gold.Chemscore.ZeroCoef>
-5.4800

> <Gold.Chemscore.Hbond>
0.9985

> <Gold.Chemscore.Metal>
0.0000

> <Gold.Chemscore.Lipo>
83.8518

> <Gold.Chemscore.Internal_Hbond>
0.0000

> <Gold.Chemscore.DEClash>
1.7830

> <Gold.Chemscore.DEInternal>
2.6527

> <Gold.Chemscore.Rot>
2.1966

> <Gold.Chemscore.Internal.Correction>
   9.000000E+99

> <Gold.Chemscore.Hbonds>
donor molecule, donor type, donor heavy atom, donor atom, acceptor molecule, acceptor atom, score
      L1  H     1    21       P1  7948  0.74

> <Gold.Chemscore.Hbond.Weighted>
-3.3350

> <Gold.Chemscore.Metal.Weighted>
-0.0000

> <Gold.Chemscore.Lipo.Weighted>
-9.8107

> <Gold.Chemscore.Internal_Hbond.Weighted>
0.0000

> <Gold.Chemscore.DEClash.Weighted>
1.7830

> <Gold.Chemscore.DEInternal.Weighted>
2.6527

> <Gold.Chemscore.Rot.Weighted>
5.6232

> <Gold.Chemscore.Internal.Correction.Weighted>
   9.000000E+99

> <Gold.Protein.RotatedTorsions>
[ 6907 6896 6895 6894 ] final   68.62 input  -60.11 | X-H torsion
[ 7974 7965 7964 7962 ] final  147.98 input  175.53 | X-H torsion
[ 8008 7997 7996 7995 ] final   29.31 input   59.86 | X-H torsion
[ 10167 10162 10161 10158 ] final  167.17 input  -65.29 | X-H torsion
[ 10718 10713 10712 10709 ] final -133.35 input   66.30 | X-H torsion
[ 10763 10752 10751 10750 ] final   12.19 input  -60.55 | X-H torsion
[ 11005 11000 10999 10996 ] final   -9.76 input  -57.11 | X-H torsion

> <Gold.Protein.ActiveResidues>
 VAL166  LYS551  ARG553  GLY616  TRP617  ASP618  TYR619  PRO620  LYS621  CYS622 
 ASP623  PHE694  ASN695  SER759  ASP760  ASP761  ALA762  ILE779  LEU786  VAL792 
 PHE793  MET794  SER795  GLU796  ALA797  LYS798  CYS799  TRP800  GLU811  SER814 

> <Gold.Protein.RotatedAtoms>
  152.4632  134.5135  159.9760 H   0  0  0  0  0  0  0  0  0  0  0  0  # atno 6907 bound_to 6896
  151.5179  133.3466  159.2904 H   0  0  0  0  0  0  0  0  0  0  0  0  # atno 6908 bound_to 6896
  150.8605  134.7984  159.7141 H   0  0  0  0  0  0  0  0  0  0  0  0  # atno 6909 bound_to 6896
  144.8549  139.6096  143.5957 H   0  0  0  0  0  0  0  0  0  0  0  0  # atno 7974 bound_to 7965
  155.0725  140.3202  155.4626 H   0  0  0  0  0  0  0  0  0  0  0  0  # atno 8008 bound_to 7997
  156.2787  140.2109  156.5798 H   0  0  0  0  0  0  0  0  0  0  0  0  # atno 8009 bound_to 7997
  154.7043  140.0504  157.0476 H   0  0  0  0  0  0  0  0  0  0  0  0  # atno 8010 bound_to 7997
  139.4939  144.3950  151.9474 H   0  0  0  0  0  0  0  0  0  0  0  0  # atno 10167 bound_to 10162
  156.2440  130.7113  151.0986 H   0  0  0  0  0  0  0  0  0  0  0  0  # atno 10718 bound_to 10713
  153.1848  135.6833  153.8429 H   0  0  0  0  0  0  0  0  0  0  0  0  # atno 10763 bound_to 10752
  153.7749  135.3190  155.3358 H   0  0  0  0  0  0  0  0  0  0  0  0  # atno 10764 bound_to 10752
  154.8082  135.4735  154.0543 H   0  0  0  0  0  0  0  0  0  0  0  0  # atno 10765 bound_to 10752
  140.7376  133.8697  155.8942 H   0  0  0  0  0  0  0  0  0  0  0  0  # atno 11005 bound_to 11000
  146.2815  139.6890  142.9225 LP  0  0  0  0  0  0  0  0  0  0  0  0  # atno 17320 bound_to 7965
  145.4425  141.0423  143.2849 LP  0  0  0  0  0  0  0  0  0  0  0  0  # atno 17321 bound_to 7965
  140.3388  144.3228  150.5971 LP  0  0  0  0  0  0  0  0  0  0  0  0  # atno 17342 bound_to 10162
  140.5583  143.2196  151.7809 LP  0  0  0  0  0  0  0  0  0  0  0  0  # atno 17343 bound_to 10162
  157.7187  131.0694  150.6223 LP  0  0  0  0  0  0  0  0  0  0  0  0  # atno 17370 bound_to 10713
  156.6298  130.4429  149.5791 LP  0  0  0  0  0  0  0  0  0  0  0  0  # atno 17371 bound_to 10713
  140.9866  134.1335  157.4447 LP  0  0  0  0  0  0  0  0  0  0  0  0  # atno 17394 bound_to 11000
  139.8813  135.0027  156.6144 LP  0  0  0  0  0  0  0  0  0  0  0  0  # atno 17395 bound_to 11000

$$$$
