AV-unprocessed.smi:1787|AV-procd|sdf|7208|dock1
  -GOLD-   22720 8453D 1   1.00000     0.00000
 Structure written by MMmdl.
 45 47  0  0  0  0  0  0  0  0  2 V2000
  144.6605  136.4298  153.3458 O   0  0  0  0  0  0  0  0  0  0  0  0
  145.8029  136.2294  152.9367 C   0  0  0  0  0  0  0  0  0  0  0  0
  146.8586  136.9703  153.3010 N   0  0  0  0  0  0  0  0  0  0  0  0
  146.8277  138.1068  154.2219 C   0  0  0  0  0  0  0  0  0  0  0  0
  148.1305  138.9708  154.1936 C   0  0  1  0  0  0  0  0  0  0  0  0
  149.3300  138.0531  154.2161 N   0  3  0  0  0  0  0  0  0  0  0  0
  150.6362  138.7585  154.3451 C   0  0  0  0  0  0  0  0  0  0  0  0
  151.8072  137.7825  154.1598 C   0  0  0  0  0  0  0  0  0  0  0  0
  151.7130  136.7538  155.1333 O   0  0  0  0  0  0  0  0  0  0  0  0
  150.5241  135.9944  154.9738 C   0  0  0  0  0  0  0  0  0  0  0  0
  149.2863  136.8927  155.1502 C   0  0  0  0  0  0  0  0  0  0  0  0
  148.1165  139.9002  152.9559 C   0  0  0  0  0  0  0  0  0  0  0  0
  147.0689  141.0013  153.1765 C   0  0  0  0  0  0  0  0  0  0  0  0
  146.9360  141.3016  154.9571 S   0  0  0  0  0  0  0  0  0  0  0  0
  148.1046  139.9834  155.3703 C   0  0  0  0  0  0  0  0  0  0  0  0
  146.1683  135.2658  152.0740 N   0  0  0  0  0  0  0  0  0  0  0  0
  145.3728  134.2582  151.4632 C   0  0  0  0  0  0  0  0  0  0  0  0
  145.8370  133.3433  150.4863 C   0  0  0  0  0  0  0  0  0  0  0  0
  144.9350  132.4020  149.9537 C   0  0  0  0  0  0  0  0  0  0  0  0
  143.6026  132.4124  150.4098 C   0  0  0  0  0  0  0  0  0  0  0  0
  143.1441  133.2847  151.3316 N   0  0  0  0  0  0  0  0  0  0  0  0
  144.0145  134.1827  151.8387 C   0  0  0  0  0  0  0  0  0  0  0  0
  147.7532  136.7443  152.8915 H   0  0  0  0  0  0  0  0  0  0  0  0
  145.9695  138.7143  153.9361 H   0  0  0  0  0  0  0  0  0  0  0  0
  146.5897  137.7640  155.2294 H   0  0  0  0  0  0  0  0  0  0  0  0
  150.7275  139.5528  153.6062 H   0  0  0  0  0  0  0  0  0  0  0  0
  150.7159  139.2247  155.3278 H   0  0  0  0  0  0  0  0  0  0  0  0
  151.8112  137.3594  153.1539 H   0  0  0  0  0  0  0  0  0  0  0  0
  152.7551  138.3048  154.2903 H   0  0  0  0  0  0  0  0  0  0  0  0
  150.5171  135.5146  153.9936 H   0  0  0  0  0  0  0  0  0  0  0  0
  150.5152  135.1958  155.7158 H   0  0  0  0  0  0  0  0  0  0  0  0
  149.2186  137.2420  156.1810 H   0  0  0  0  0  0  0  0  0  0  0  0
  148.4219  136.2611  154.9540 H   0  0  0  0  0  0  0  0  0  0  0  0
  149.0923  140.3720  152.8371 H   0  0  0  0  0  0  0  0  0  0  0  0
  147.9144  139.3621  152.0292 H   0  0  0  0  0  0  0  0  0  0  0  0
  147.3300  141.9181  152.6476 H   0  0  0  0  0  0  0  0  0  0  0  0
  146.0936  140.6780  152.8117 H   0  0  0  0  0  0  0  0  0  0  0  0
  147.8777  139.5327  156.3354 H   0  0  0  0  0  0  0  0  0  0  0  0
  149.0471  140.5163  155.4757 H   0  0  0  0  0  0  0  0  0  0  0  0
  147.1362  135.2748  151.7874 H   0  0  0  0  0  0  0  0  0  0  0  0
  146.8532  133.3459  150.1252 H   0  0  0  0  0  0  0  0  0  0  0  0
  145.2568  131.6894  149.2090 H   0  0  0  0  0  0  0  0  0  0  0  0
  142.8858  131.7046  150.0211 H   0  0  0  0  0  0  0  0  0  0  0  0
  143.6110  134.8650  152.5727 H   0  0  0  0  0  0  0  0  0  0  0  0
  149.3385  137.6332  153.2974 H   0  0  0  0  0  0  0  0  0  0  0  0
  1  2  2  0  0  0  0
  2  3  1  0  0  0  0
  2 16  1  0  0  0  0
  3  4  1  0  0  0  0
  3 23  1  0  0  0  0
  4  5  1  0  0  0  0
  4 24  1  0  0  0  0
  4 25  1  0  0  0  0
  5 15  1  0  0  0  0
  5  6  1  0  0  0  0
  5 12  1  0  0  0  0
  6 11  1  0  0  0  0
  6  7  1  0  0  0  0
  6 45  1  0  0  0  0
  7  8  1  0  0  0  0
  7 26  1  0  0  0  0
  7 27  1  0  0  0  0
  8  9  1  0  0  0  0
  8 28  1  0  0  0  0
  8 29  1  0  0  0  0
  9 10  1  0  0  0  0
 10 11  1  0  0  0  0
 10 30  1  0  0  0  0
 10 31  1  0  0  0  0
 11 32  1  0  0  0  0
 11 33  1  0  0  0  0
 12 13  1  0  0  0  0
 12 34  1  0  0  0  0
 12 35  1  0  0  0  0
 13 14  1  0  0  0  0
 13 36  1  0  0  0  0
 13 37  1  0  0  0  0
 14 15  1  0  0  0  0
 15 38  1  0  0  0  0
 15 39  1  0  0  0  0
 16 17  1  0  0  0  0
 16 40  1  0  0  0  0
 17 22  1  0  0  0  0
 17 18  2  0  0  0  0
 18 19  1  0  0  0  0
 18 41  1  0  0  0  0
 19 20  2  0  0  0  0
 19 42  1  0  0  0  0
 20 21  1  0  0  0  0
 20 43  1  0  0  0  0
 21 22  2  0  0  0  0
 22 44  1  0  0  0  0
M  CHG  1   6   1
M  END
> <s_m_source_file>
AV-unprocessed.smi

> <i_m_source_file_index>
1787

> <i_lp_mmshare_version>
43012

> <i_f3d_flags>
0

> <s_epik_input>
W2NIXTFuW2NIXVtjSF1bY0hdYzFbTkhdQyg9TylbTkhdW0NIMl1bQ0BdMihbQ0gyXVtDSDJdU1tDSDJdMilOM1tDSDJdW0NIMl1PW0NIMl1bQ0gyXTM=

> <s_epik_cmdline>
J2VwaWtfcHl0aG9uJywgJy1waCcsICc3LjAnLCAnLXRuJywgJzgnLCAnLW1hJywgJzIwMCcsICctbWV0YWxfYmluZGluZycsICctaW1hZScsICc8aW5maWxlLm1hZT4nLCAnLW9tYWUnLCAnPG91dGZpbGUubWFlPic=

> <r_epik_Ionization_Penalty>
2.03633

> <r_epik_Ionization_Penalty_Charging>
2.03219

> <r_epik_Ionization_Penalty_Neutral>
0.00414252

> <r_epik_State_Penalty>
2.16328

> <r_epik_Charging_Adjusted_Penalty>
4.19546

> <i_epik_Tot_Q>
1

> <i_epik_Tot_abs_Q>
1

> <r_epik_Metal_State_Penalty>
2.16381

> <b_epik_Metal_Only>
0

> <s_lp_Force_Field>
OPLS_2005

> <r_lp_Energy>
45.3922

> <b_lp_Chiralities_Consistent>
1

> <s_lp_Variant>
AV-unprocessed.smi:1787-3

> <Gold.Version>
5.8.1

> <Gold.Id.Protein>
6NUR|6NUR_protein|mol2

> <Gold.PLP.Fitness>
48.6307

> <Gold.PLP.PLP>
-31.7012

> <Gold.PLP.part.hbond>
-4.0000

> <Gold.PLP.part.metal>
0.0000

> <Gold.PLP.part.buried>
-1.7779

> <Gold.PLP.part.nonpolar>
-26.6173

> <Gold.PLP.part.repulsive>
0.5252

> <Gold.PLP.ligand.clash>
0.0000

> <Gold.PLP.ligand.torsion>
0.4897

> <Gold.PLP.Chemscore.Hbond>
4.9184

> <Gold.PLP.Chemscore.CHOScore>
0.9999

> <Gold.PLP.Chemscore.Metal>
0.0000

> <Gold.Chemscore.Hbonds>
donor molecule, donor type, donor heavy atom, donor atom, acceptor molecule, acceptor atom, score
      L1  H     3    23       P1  7948  1.00
      L1  H     6    45       P1  7948  2.00
      L1  H    16    40       P1  7948  0.98
      P1  H 10752 10764       L1     9  0.80
      L1  C    20    43       P1 10952  1.00

> <Gold.PLP.Chemscore.Internal.Correction>
0.1540

> <Gold.Rescore>
     Score         DG    S(hbond)    S(metal)    S(lipo)     H(rot)  DE(clash)    DE(int)     intcor
     18.78     -22.39       2.86        0.00      95.37       1.49       1.90       1.71       ----

> <Gold.Chemscore.Fitness>
18.7762

> <Gold.Chemscore.DG>
-22.3934

> <Gold.Chemscore.ZeroCoef>
-5.4800

> <Gold.Chemscore.Hbond>
2.8622

> <Gold.Chemscore.Metal>
0.0000

> <Gold.Chemscore.Lipo>
95.3663

> <Gold.Chemscore.Internal_Hbond>
0.0000

> <Gold.Chemscore.DEClash>
1.9030

> <Gold.Chemscore.DEInternal>
1.7141

> <Gold.Chemscore.Rot>
1.4860

> <Gold.Chemscore.Internal.Correction>
   9.000000E+99

> <Gold.Chemscore.Hbonds>
donor molecule, donor type, donor heavy atom, donor atom, acceptor molecule, acceptor atom, score
      L1  H     3    23       P1  7948  1.00
      L1  H     6    45       P1  7948  0.92
      L1  H    16    40       P1  7948  0.87
      P1  H 10752 10764       L1     9  0.03

> <Gold.Chemscore.Hbond.Weighted>
-9.5598

> <Gold.Chemscore.Metal.Weighted>
-0.0000

> <Gold.Chemscore.Lipo.Weighted>
-11.1579

> <Gold.Chemscore.Internal_Hbond.Weighted>
0.0000

> <Gold.Chemscore.DEClash.Weighted>
1.9030

> <Gold.Chemscore.DEInternal.Weighted>
1.7141

> <Gold.Chemscore.Rot.Weighted>
3.8042

> <Gold.Chemscore.Internal.Correction.Weighted>
   9.000000E+99

> <Gold.Protein.RotatedTorsions>
[ 6907 6896 6895 6894 ] final  -49.79 input  -60.11 | X-H torsion
[ 7974 7965 7964 7962 ] final  159.38 input  175.53 | X-H torsion
[ 8008 7997 7996 7995 ] final   36.73 input   59.86 | X-H torsion
[ 10167 10162 10161 10158 ] final   75.96 input  -65.29 | X-H torsion
[ 10718 10713 10712 10709 ] final   97.74 input   66.30 | X-H torsion
[ 10763 10752 10751 10750 ] final  -74.39 input  -60.55 | X-H torsion
[ 11005 11000 10999 10996 ] final -163.47 input  -57.11 | X-H torsion

> <Gold.Protein.ActiveResidues>
 VAL166  LYS551  ARG553  GLY616  TRP617  ASP618  TYR619  PRO620  LYS621  CYS622 
 ASP623  PHE694  ASN695  SER759  ASP760  ASP761  ALA762  ILE779  LEU786  VAL792 
 PHE793  MET794  SER795  GLU796  ALA797  LYS798  CYS799  TRP800  GLU811  SER814 

> <Gold.Protein.RotatedAtoms>
  150.8771  134.8155  159.7197 H   0  0  0  0  0  0  0  0  0  0  0  0  # atno 6907 bound_to 6896
  152.4753  134.4855  159.9689 H   0  0  0  0  0  0  0  0  0  0  0  0  # atno 6908 bound_to 6896
  151.4935  133.3481  159.2893 H   0  0  0  0  0  0  0  0  0  0  0  0  # atno 6909 bound_to 6896
  144.7793  139.7610  143.6266 H   0  0  0  0  0  0  0  0  0  0  0  0  # atno 7974 bound_to 7965
  155.1922  140.3309  155.4356 H   0  0  0  0  0  0  0  0  0  0  0  0  # atno 8008 bound_to 7997
  156.2438  140.1908  156.6964 H   0  0  0  0  0  0  0  0  0  0  0  0  # atno 8009 bound_to 7997
  154.6198  140.0597  156.9586 H   0  0  0  0  0  0  0  0  0  0  0  0  # atno 8010 bound_to 7997
  139.9973  144.5712  150.7767 H   0  0  0  0  0  0  0  0  0  0  0  0  # atno 10167 bound_to 10162
  157.6907  131.0618  150.4689 H   0  0  0  0  0  0  0  0  0  0  0  0  # atno 10718 bound_to 10713
  154.4724  135.5866  153.6331 H   0  0  0  0  0  0  0  0  0  0  0  0  # atno 10763 bound_to 10752
  152.9836  135.6070  154.3350 H   0  0  0  0  0  0  0  0  0  0  0  0  # atno 10764 bound_to 10752
  154.3233  135.2843  155.2488 H   0  0  0  0  0  0  0  0  0  0  0  0  # atno 10765 bound_to 10752
  140.5978  134.4979  157.5201 H   0  0  0  0  0  0  0  0  0  0  0  0  # atno 11005 bound_to 11000
  146.1992  139.5276  142.9754 LP  0  0  0  0  0  0  0  0  0  0  0  0  # atno 17320 bound_to 7965
  145.6095  141.0342  143.1974 LP  0  0  0  0  0  0  0  0  0  0  0  0  # atno 17321 bound_to 7965
  140.7432  143.2843  151.3509 LP  0  0  0  0  0  0  0  0  0  0  0  0  # atno 17342 bound_to 10162
  139.6297  144.0745  152.2465 LP  0  0  0  0  0  0  0  0  0  0  0  0  # atno 17343 bound_to 10162
  156.5028  130.4121  149.6343 LP  0  0  0  0  0  0  0  0  0  0  0  0  # atno 17370 bound_to 10713
  156.3312  130.7332  151.2262 LP  0  0  0  0  0  0  0  0  0  0  0  0  # atno 17371 bound_to 10713
  139.9246  134.8082  156.1108 LP  0  0  0  0  0  0  0  0  0  0  0  0  # atno 17394 bound_to 11000
  141.0892  133.6721  156.2504 LP  0  0  0  0  0  0  0  0  0  0  0  0  # atno 17395 bound_to 11000

$$$$
