AV-unprocessed.smi:1627|AV-procd|sdf|6519|dock4
  -GOLD-   22720 7193D 1   1.00000     0.00000
 Structure written by MMmdl.
 44 45  0  0  0  0  0  0  0  0  2 V2000
  146.6517  138.6741  151.5790 C   0  0  0  0  0  0  0  0  0  0  0  0
  146.2514  138.1206  152.9545 C   0  0  1  0  0  0  0  0  0  0  0  0
  146.0699  136.7145  152.8120 O   0  0  0  0  0  0  0  0  0  0  0  0
  145.2017  136.3129  151.7574 C   0  0  0  0  0  0  0  0  0  0  0  0
  145.0156  134.7916  151.8047 C   0  0  0  0  0  0  0  0  0  0  0  0
  146.2051  134.2006  151.6981 F   0  0  0  0  0  0  0  0  0  0  0  0
  144.4603  134.4296  152.9610 F   0  0  0  0  0  0  0  0  0  0  0  0
  144.2465  134.3912  150.7927 F   0  0  0  0  0  0  0  0  0  0  0  0
  147.3327  138.4130  154.0075 C   0  0  0  0  0  0  0  0  0  0  0  0
  147.8274  137.4840  154.6453 O   0  0  0  0  0  0  0  0  0  0  0  0
  147.6427  139.7106  154.1866 N   0  0  0  0  0  0  0  0  0  0  0  0
  148.5928  140.2779  155.0783 C   0  0  0  0  0  0  0  0  0  0  0  0
  149.5134  139.5205  155.8430 C   0  0  0  0  0  0  0  0  0  0  0  0
  150.4279  140.1835  156.6869 C   0  0  0  0  0  0  0  0  0  0  0  0
  150.4294  141.5971  156.7585 C   0  0  0  0  0  0  0  0  0  0  0  0
  151.3225  142.3109  157.5872 N   0  0  0  0  0  0  0  0  0  0  0  0
  151.3476  143.7627  157.3942 C   0  0  0  0  0  0  0  0  0  0  0  0
  152.6104  144.3854  158.0140 C   0  0  0  0  0  0  0  0  0  0  0  0
  152.7598  143.9827  159.4882 C   0  0  0  0  0  0  0  0  0  0  0  0
  152.7394  142.4531  159.6176 C   0  0  0  0  0  0  0  0  0  0  0  0
  151.4750  141.8592  158.9731 C   0  0  0  0  0  0  0  0  0  0  0  0
  149.5346  142.2763  155.9989 N   0  3  0  0  0  0  0  0  0  0  0  0
  148.6428  141.6829  155.1766 C   0  0  0  0  0  0  0  0  0  0  0  0
  146.8199  139.7510  151.6177 H   0  0  0  0  0  0  0  0  0  0  0  0
  145.8658  138.4906  150.8461 H   0  0  0  0  0  0  0  0  0  0  0  0
  147.5632  138.2052  151.2065 H   0  0  0  0  0  0  0  0  0  0  0  0
  145.3068  138.5826  153.2482 H   0  0  0  0  0  0  0  0  0  0  0  0
  144.2295  136.7997  151.8423 H   0  0  0  0  0  0  0  0  0  0  0  0
  145.6286  136.6030  150.7961 H   0  0  0  0  0  0  0  0  0  0  0  0
  147.0902  140.3723  153.6603 H   0  0  0  0  0  0  0  0  0  0  0  0
  149.5449  138.4432  155.7931 H   0  0  0  0  0  0  0  0  0  0  0  0
  151.1116  139.5945  157.2798 H   0  0  0  0  0  0  0  0  0  0  0  0
  151.3059  144.0333  156.3403 H   0  0  0  0  0  0  0  0  0  0  0  0
  150.4581  144.1892  157.8602 H   0  0  0  0  0  0  0  0  0  0  0  0
  153.4892  144.0592  157.4560 H   0  0  0  0  0  0  0  0  0  0  0  0
  152.5730  145.4715  157.9246 H   0  0  0  0  0  0  0  0  0  0  0  0
  153.6881  144.3836  159.8964 H   0  0  0  0  0  0  0  0  0  0  0  0
  151.9470  144.4140  160.0740 H   0  0  0  0  0  0  0  0  0  0  0  0
  153.6246  142.0353  159.1360 H   0  0  0  0  0  0  0  0  0  0  0  0
  152.7937  142.1650  160.6678 H   0  0  0  0  0  0  0  0  0  0  0  0
  150.5925  142.1528  159.5431 H   0  0  0  0  0  0  0  0  0  0  0  0
  151.5390  140.7711  159.0122 H   0  0  0  0  0  0  0  0  0  0  0  0
  147.9939  142.3513  154.6293 H   0  0  0  0  0  0  0  0  0  0  0  0
  149.5371  143.2953  156.0481 H   0  0  0  0  0  0  0  0  0  0  0  0
  1  2  1  0  0  0  0
  1 24  1  0  0  0  0
  1 25  1  0  0  0  0
  1 26  1  0  0  0  0
  2  3  1  0  0  0  0
  2  9  1  0  0  0  0
  2 27  1  0  0  0  0
  3  4  1  0  0  0  0
  4  5  1  0  0  0  0
  4 28  1  0  0  0  0
  4 29  1  0  0  0  0
  5  6  1  0  0  0  0
  5  7  1  0  0  0  0
  5  8  1  0  0  0  0
  9 10  2  0  0  0  0
  9 11  1  0  0  0  0
 11 12  1  0  0  0  0
 11 30  1  0  0  0  0
 12 23  1  0  0  0  0
 12 13  2  0  0  0  0
 13 14  1  0  0  0  0
 13 31  1  0  0  0  0
 14 15  2  0  0  0  0
 14 32  1  0  0  0  0
 15 16  1  0  0  0  0
 15 22  1  0  0  0  0
 16 21  1  0  0  0  0
 16 17  1  0  0  0  0
 17 18  1  0  0  0  0
 17 33  1  0  0  0  0
 17 34  1  0  0  0  0
 18 19  1  0  0  0  0
 18 35  1  0  0  0  0
 18 36  1  0  0  0  0
 19 20  1  0  0  0  0
 19 37  1  0  0  0  0
 19 38  1  0  0  0  0
 20 21  1  0  0  0  0
 20 39  1  0  0  0  0
 20 40  1  0  0  0  0
 21 41  1  0  0  0  0
 21 42  1  0  0  0  0
 22 23  2  0  0  0  0
 22 44  1  0  0  0  0
 23 43  1  0  0  0  0
M  CHG  1  22   1
M  END
> <s_m_source_file>
AV-unprocessed.smi

> <i_m_source_file_index>
1627

> <i_lp_mmshare_version>
43012

> <i_f3d_flags>
0

> <s_epik_input>
RkMoRikoRilbQ0gyXU9bQ0BASF0oW0NIM10pQyg9TylbTkhdYzFbY0hdW2NIXWMobltjSF0xKU4yW0NIMl1bQ0gyXVtDSDJdW0NIMl1bQ0gyXTI=

> <s_epik_cmdline>
J2VwaWtfcHl0aG9uJywgJy1waCcsICc3LjAnLCAnLXRuJywgJzgnLCAnLW1hJywgJzIwMCcsICctbWV0YWxfYmluZGluZycsICctaW1hZScsICc8aW5maWxlLm1hZT4nLCAnLW9tYWUnLCAnPG91dGZpbGUubWFlPic=

> <r_lp_tautomer_probability>
0.999994

> <r_epik_Ionization_Penalty>
1.93197

> <r_epik_Ionization_Penalty_Charging>
1.93197

> <r_epik_Ionization_Penalty_Neutral>
3.16684e-06

> <r_epik_State_Penalty>
2.05557

> <r_epik_Charging_Adjusted_Penalty>
3.98754

> <i_epik_Tot_Q>
1

> <i_epik_Tot_abs_Q>
1

> <r_epik_Metal_State_Penalty>
2.08108

> <b_epik_Metal_Only>
0

> <s_lp_Force_Field>
OPLS_2005

> <r_lp_Energy>
31.3841

> <b_lp_Chiralities_Consistent>
1

> <s_lp_Variant>
AV-unprocessed.smi:1627-4

> <Gold.Version>
5.8.1

> <Gold.Id.Protein>
6NUR|6NUR_protein|mol2

> <Gold.PLP.Fitness>
45.2309

> <Gold.PLP.PLP>
-40.0984

> <Gold.PLP.part.hbond>
-1.0000

> <Gold.PLP.part.metal>
0.0000

> <Gold.PLP.part.buried>
-3.3528

> <Gold.PLP.part.nonpolar>
-39.0708

> <Gold.PLP.part.repulsive>
1.5886

> <Gold.PLP.ligand.clash>
0.7892

> <Gold.PLP.ligand.torsion>
0.3027

> <Gold.PLP.Chemscore.Hbond>
2.0000

> <Gold.PLP.Chemscore.CHOScore>
0.0000

> <Gold.PLP.Chemscore.Metal>
0.0000

> <Gold.Chemscore.Hbonds>
donor molecule, donor type, donor heavy atom, donor atom, acceptor molecule, acceptor atom, score
      L1  H    22    44       P1  8028  2.00

> <Gold.PLP.Chemscore.Internal.Correction>
0.5271

> <Gold.Rescore>
     Score         DG    S(hbond)    S(metal)    S(lipo)     H(rot)  DE(clash)    DE(int)     intcor
     14.32     -15.98       0.96        0.00     103.92       1.90       0.08       1.58       ----

> <Gold.Chemscore.Fitness>
14.3158

> <Gold.Chemscore.DG>
-15.9752

> <Gold.Chemscore.ZeroCoef>
-5.4800

> <Gold.Chemscore.Hbond>
0.9589

> <Gold.Chemscore.Metal>
0.0000

> <Gold.Chemscore.Lipo>
103.9152

> <Gold.Chemscore.Internal_Hbond>
0.0000

> <Gold.Chemscore.DEClash>
0.0757

> <Gold.Chemscore.DEInternal>
1.5836

> <Gold.Chemscore.Rot>
1.9007

> <Gold.Chemscore.Internal.Correction>
   9.000000E+99

> <Gold.Chemscore.Hbonds>
donor molecule, donor type, donor heavy atom, donor atom, acceptor molecule, acceptor atom, score
      L1  H    22    44       P1  8028  0.94

> <Gold.Chemscore.Hbond.Weighted>
-3.2028

> <Gold.Chemscore.Metal.Weighted>
-0.0000

> <Gold.Chemscore.Lipo.Weighted>
-12.1581

> <Gold.Chemscore.Internal_Hbond.Weighted>
0.0000

> <Gold.Chemscore.DEClash.Weighted>
0.0757

> <Gold.Chemscore.DEInternal.Weighted>
1.5836

> <Gold.Chemscore.Rot.Weighted>
4.8657

> <Gold.Chemscore.Internal.Correction.Weighted>
   9.000000E+99

> <Gold.Protein.RotatedTorsions>
[ 6907 6896 6895 6894 ] final  107.48 input  -60.11 | X-H torsion
[ 7974 7965 7964 7962 ] final -177.34 input  175.53 | X-H torsion
[ 8008 7997 7996 7995 ] final  -64.75 input   59.86 | X-H torsion
[ 10167 10162 10161 10158 ] final   59.28 input  -65.29 | X-H torsion
[ 10718 10713 10712 10709 ] final  -40.74 input   66.30 | X-H torsion
[ 10763 10752 10751 10750 ] final  -74.39 input  -60.55 | X-H torsion
[ 11005 11000 10999 10996 ] final  -97.63 input  -57.11 | X-H torsion

> <Gold.Protein.ActiveResidues>
 VAL166  LYS551  ARG553  GLY616  TRP617  ASP618  TYR619  PRO620  LYS621  CYS622 
 ASP623  PHE694  ASN695  SER759  ASP760  ASP761  ALA762  ILE779  LEU786  VAL792 
 PHE793  MET794  SER795  GLU796  ALA797  LYS798  CYS799  TRP800  GLU811  SER814 

> <Gold.Protein.RotatedAtoms>
  152.5152  133.9228  159.7542 H   0  0  0  0  0  0  0  0  0  0  0  0  # atno 6907 bound_to 6896
  150.9596  133.6452  159.2764 H   0  0  0  0  0  0  0  0  0  0  0  0  # atno 6908 bound_to 6896
  151.3701  135.0926  159.9515 H   0  0  0  0  0  0  0  0  0  0  0  0  # atno 6909 bound_to 6896
  144.7127  140.1035  143.6415 H   0  0  0  0  0  0  0  0  0  0  0  0  # atno 7974 bound_to 7965
  154.4630  140.0947  156.6946 H   0  0  0  0  0  0  0  0  0  0  0  0  # atno 8008 bound_to 7997
  155.4938  140.3471  155.4341 H   0  0  0  0  0  0  0  0  0  0  0  0  # atno 8009 bound_to 7997
  156.0906  140.1396  156.9586 H   0  0  0  0  0  0  0  0  0  0  0  0  # atno 8010 bound_to 7997
  140.1781  144.4209  150.6628 H   0  0  0  0  0  0  0  0  0  0  0  0  # atno 10167 bound_to 10162
  156.2780  130.4214  149.8367 H   0  0  0  0  0  0  0  0  0  0  0  0  # atno 10718 bound_to 10713
  154.4724  135.5866  153.6331 H   0  0  0  0  0  0  0  0  0  0  0  0  # atno 10763 bound_to 10752
  152.9836  135.6070  154.3350 H   0  0  0  0  0  0  0  0  0  0  0  0  # atno 10764 bound_to 10752
  154.3233  135.2843  155.2488 H   0  0  0  0  0  0  0  0  0  0  0  0  # atno 10765 bound_to 10752
  141.1372  133.8185  157.0732 H   0  0  0  0  0  0  0  0  0  0  0  0  # atno 11005 bound_to 11000
  145.9517  139.2738  143.1208 LP  0  0  0  0  0  0  0  0  0  0  0  0  # atno 17320 bound_to 7965
  145.9316  140.9044  143.0353 LP  0  0  0  0  0  0  0  0  0  0  0  0  # atno 17321 bound_to 7965
  140.6537  143.2232  151.6017 LP  0  0  0  0  0  0  0  0  0  0  0  0  # atno 17342 bound_to 10162
  139.5308  144.2922  152.1142 LP  0  0  0  0  0  0  0  0  0  0  0  0  # atno 17343 bound_to 10162
  156.5824  130.8471  151.3386 LP  0  0  0  0  0  0  0  0  0  0  0  0  # atno 17370 bound_to 10713
  157.7305  130.9687  150.1838 LP  0  0  0  0  0  0  0  0  0  0  0  0  # atno 17371 bound_to 10713
  140.0498  134.9811  157.1115 LP  0  0  0  0  0  0  0  0  0  0  0  0  # atno 17394 bound_to 11000
  140.4007  134.2085  155.7163 LP  0  0  0  0  0  0  0  0  0  0  0  0  # atno 17395 bound_to 11000

$$$$
