#       Name:                AV-unprocessed.smi:1419
#       Creating user name   scv26
#       Creation time:       Fri Mar 27 05:41:53 2020


#       File generated by GOLD software.
#

@<TRIPOS>MOLECULE
AV-unprocessed.smi:1419
    46    47     1
SMALL
NO_CHARGES


@<TRIPOS>ATOM
      1 ****        -3.7645  -1.0210   1.4846 C.3            1 S1                 0.0000
      2 ****        -2.8623  -0.4098   0.4045 C.3            1 S1                 0.0000
      3 ****        -2.7325  -1.3474  -0.8159 C.3            1 S1                 0.0000
      4 ****        -1.9591  -0.7568  -1.9138 N.pl3          1 S1                 0.0000
      5 ****        -0.6774  -1.0687  -2.2901 C.2            1 S1                 0.0000
      6 ****        -0.3694  -0.2484  -3.3446 C.2            1 S1                 0.0000
      7 ****        -1.4773   0.5236  -3.5715 N.pl3          1 S1                 1.0000
      8 ****        -2.4447   0.2092  -2.7038 C.2            1 S1                 0.0000
      9 ****        -1.5489  -0.1309   0.9833 N.am           1 S1                 0.0000
     10 ****        -0.7775   0.9366   0.7115 C.2            1 S1                 0.0000
     11 ****        -1.1601   1.8558  -0.0139 O.2            1 S1                 0.0000
     12 ****         0.4452   0.9133   1.2961 N.am           1 S1                 0.0000
     13 ****         1.0872  -0.2471   1.9279 C.3            1 S1                 0.0000
     14 ****         2.1435  -0.7955   0.9475 C.3            1 S1                 0.0000
     15 ****         2.9105  -1.9884   1.5273 C.3            1 S1                 0.0000
     16 ****         3.0828   0.2375   0.6487 O.3            1 S1                 0.0000
     17 ****         2.4966   1.4131   0.0886 C.3            1 S1                 0.0000
     18 ****         3.6150   2.4235  -0.1856 C.3            1 S1                 0.0000
     19 ****         1.4392   1.9635   1.0673 C.3            1 S1                 0.0000
     20 ****        -4.7607  -1.2283   1.0924 H              1 S1                 0.0000
     21 ****        -3.8803  -0.3420   2.3300 H              1 S1                 0.0000
     22 ****        -3.3545  -1.9581   1.8629 H              1 S1                 0.0000
     23 ****        -3.3319   0.5222   0.0848 H              1 S1                 0.0000
     24 ****        -2.2540  -2.2860  -0.5325 H              1 S1                 0.0000
     25 ****        -3.7178  -1.6011  -1.2096 H              1 S1                 0.0000
     26 ****        -0.0920  -1.8247  -1.7872 H              1 S1                 0.0000
     27 ****         0.5312  -0.1578  -3.9342 H              1 S1                 0.0000
     28 ****        -3.4205   0.6576  -2.6443 H              1 S1                 0.0000
     29 ****        -1.1733  -0.8301   1.6076 H              1 S1                 0.0000
     30 ****         1.5633   0.0670   2.8581 H              1 S1                 0.0000
     31 ****         0.3911  -1.0370   2.2103 H              1 S1                 0.0000
     32 ****         1.6576  -1.1102   0.0223 H              1 S1                 0.0000
     33 ****         2.2369  -2.8141   1.7576 H              1 S1                 0.0000
     34 ****         3.4310  -1.7142   2.4454 H              1 S1                 0.0000
     35 ****         3.6547  -2.3546   0.8198 H              1 S1                 0.0000
     36 ****         2.0208   1.1540  -0.8592 H              1 S1                 0.0000
     37 ****         3.2192   3.3354  -0.6332 H              1 S1                 0.0000
     38 ****         4.3536   2.0099  -0.8726 H              1 S1                 0.0000
     39 ****         4.1325   2.6988   0.7338 H              1 S1                 0.0000
     40 ****         0.9974   2.8804   0.6739 H              1 S1                 0.0000
     41 ****         1.9043   2.2393   2.0148 H              1 S1                 0.0000
     42 ****        -1.5551   1.2332  -4.2891 H              1 S1                 0.0000
     43 ****        -2.0721   1.8235  -0.4228 LP             1 S1                 0.0000
     44 ****        -0.5587   2.6342  -0.1938 LP             1 S1                 0.0000
     45 ****         3.7492  -0.1230  -0.0040 LP             1 S1                 0.0000
     46 ****         3.5498   0.4921   1.4955 LP             1 S1                 0.0000
@<TRIPOS>BOND
    1    1    2 1     
    2    1   20 1     
    3    1   21 1     
    4    1   22 1     
    5    2    3 1     
    6    2    9 1     
    7    2   23 1     
    8    3    4 1     
    9    3   24 1     
   10    3   25 1     
   11    4    8 1     
   12    4    5 1     
   13    5    6 2     
   14    5   26 1     
   15    6    7 1     
   16    6   27 1     
   17    7    8 2     
   18    7   42 1     
   19    8   28 1     
   20    9   10 am    
   21    9   29 1     
   22   10   11 2     
   23   10   12 am    
   24   12   19 1     
   25   12   13 1     
   26   13   14 1     
   27   13   30 1     
   28   13   31 1     
   29   14   15 1     
   30   14   16 1     
   31   14   32 1     
   32   15   33 1     
   33   15   34 1     
   34   15   35 1     
   35   16   17 1     
   36   17   18 1     
   37   17   19 1     
   38   17   36 1     
   39   18   37 1     
   40   18   38 1     
   41   18   39 1     
   42   19   40 1     
   43   19   41 1     
   44   11   43 1     
   45   11   44 1     
   46   16   45 1     
   47   16   46 1     
@<TRIPOS>SUBSTRUCTURE
      1 S1             1
@<TRIPOS>SET
LONE_PAIRS      STATIC     ATOMS    <user>   **** ""
4 43 44 45 46
DONOR_HYDROGENS      STATIC     ATOMS    <user>   **** ""
2 42 29
ATOM$BLUE        STATIC     ATOMS    COLORGROUP SYSTEM
4 43 44 45 46
ATOM$RED        STATIC     ATOMS    COLORGROUP SYSTEM
2 42 29
