#       Name:                AV-unprocessed.smi:50
#       Creating user name   scv26
#       Creation time:       Thu Mar 26 16:35:21 2020


#       File generated by GOLD software.
#

@<TRIPOS>MOLECULE
AV-unprocessed.smi:50
    52    53     1
SMALL
NO_CHARGES


@<TRIPOS>ATOM
      1 ****        -3.8487   2.9083  -2.1365 C.3            1 S1                 0.0000
      2 ****        -2.3148   3.0456  -2.1672 C.3            1 S1                 0.0000
      3 ****        -1.7181   1.9165  -3.0303 C.3            1 S1                 0.0000
      4 ****        -1.7140   3.1035  -0.7356 C.3            1 S1                 0.0000
      5 ****        -2.2970   4.2077   0.0516 N.4            1 S1                 1.0000
      6 ****        -0.1893   3.3101  -0.7225 C.2            1 S1                 0.0000
      7 ****         0.3663   4.4104  -0.7199 O.2            1 S1                 0.0000
      8 ****         0.4417   2.1247  -0.7376 O.3            1 S1                 0.0000
      9 ****         1.8595   2.0801  -0.7345 C.3            1 S1                 0.0000
     10 ****         2.3238   0.6268  -0.8629 C.3            1 S1                 0.0000
     11 ****         2.0704  -0.0465   0.3598 O.3            1 S1                 0.0000
     12 ****         2.5142  -1.3635   0.3619 C.3            1 S1                 0.0000
     13 ****         2.1479  -1.9535   1.6371 N.pl3          1 S1                 0.0000
     14 ****         2.3381  -1.4437   2.8977 C.2            1 S1                 0.0000
     15 ****         1.9033  -2.2158   3.8541 N.2            1 S1                 0.0000
     16 ****         1.3940  -3.3274   3.1892 C.2            1 S1                 0.0000
     17 ****         0.7847  -4.5178   3.7114 C.2            1 S1                 0.0000
     18 ****         0.5733  -4.8136   4.8856 O.2            1 S1                 0.0000
     19 ****         0.4112  -5.4084   2.6968 N.am           1 S1                 0.0000
     20 ****         0.6047  -5.1715   1.3380 C.2            1 S1                 0.0000
     21 ****         0.1936  -6.1269   0.4941 N.pl3          1 S1                 0.0000
     22 ****         1.1622  -4.0736   0.8587 N.2            1 S1                 0.0000
     23 ****         1.5412  -3.1783   1.8234 C.2            1 S1                 0.0000
     24 ****        -1.9501   2.1744  -0.2153 H              1 S1                 0.0000
     25 ****        -0.0232  -6.2726   2.9858 H              1 S1                 0.0000
     26 ****        -4.1535   1.9952  -1.6241 H              1 S1                 0.0000
     27 ****        -4.2598   2.8724  -3.1459 H              1 S1                 0.0000
     28 ****        -4.3242   3.7493  -1.6319 H              1 S1                 0.0000
     29 ****        -2.0872   3.9876  -2.6689 H              1 S1                 0.0000
     30 ****        -1.8461   0.9441  -2.5534 H              1 S1                 0.0000
     31 ****        -0.6538   2.0621  -3.2148 H              1 S1                 0.0000
     32 ****        -2.2025   1.8714  -4.0063 H              1 S1                 0.0000
     33 ****        -1.9060   4.1979   0.9827 H              1 S1                 0.0000
     34 ****        -3.2993   4.0952   0.1027 H              1 S1                 0.0000
     35 ****         2.2366   2.6579  -1.5795 H              1 S1                 0.0000
     36 ****         2.2556   2.5319   0.1760 H              1 S1                 0.0000
     37 ****         1.8188   0.1339  -1.6953 H              1 S1                 0.0000
     38 ****         3.3945   0.6090  -1.0717 H              1 S1                 0.0000
     39 ****         2.0480  -1.9222  -0.4514 H              1 S1                 0.0000
     40 ****         3.5998  -1.4088   0.2622 H              1 S1                 0.0000
     41 ****         2.8031  -0.4866   3.0845 H              1 S1                 0.0000
     42 ****        -0.2325  -6.9669   0.8584 H              1 S1                 0.0000
     43 ****         0.3069  -6.0105  -0.5025 H              1 S1                 0.0000
     44 ****        -2.0769   5.0869  -0.3945 H              1 S1                 0.0000
     45 ****        -0.1814   5.2471  -0.7265 LP             1 S1                 0.0000
     46 ****         1.3647   4.4664  -0.7112 LP             1 S1                 0.0000
     47 ****         1.0843  -0.0432   0.5260 LP             1 S1                 0.0000
     48 ****         2.5341   0.4463   1.0960 LP             1 S1                 0.0000
     49 ****         1.9297  -2.0478   4.8395 LP             1 S1                 0.0000
     50 ****         0.8380  -4.1834   5.6154 LP             1 S1                 0.0000
     51 ****         0.1365  -5.6845   5.1110 LP             1 S1                 0.0000
     52 ****         1.2952  -3.9112  -0.1190 LP             1 S1                 0.0000
@<TRIPOS>BOND
    1    1    2 1     
    2    1   26 1     
    3    1   27 1     
    4    1   28 1     
    5    2    3 1     
    6    2    4 1     
    7    2   29 1     
    8    3   30 1     
    9    3   31 1     
   10    3   32 1     
   11    4   24 1     
   12    4    5 1     
   13    4    6 1     
   14    5   33 1     
   15    5   34 1     
   16    5   44 1     
   17    6    7 2     
   18    6    8 1     
   19    8    9 1     
   20    9   10 1     
   21    9   35 1     
   22    9   36 1     
   23   10   11 1     
   24   10   37 1     
   25   10   38 1     
   26   11   12 1     
   27   12   13 1     
   28   12   39 1     
   29   12   40 1     
   30   13   23 1     
   31   13   14 1     
   32   14   15 2     
   33   14   41 1     
   34   15   16 1     
   35   16   23 2     
   36   16   17 1     
   37   17   18 2     
   38   17   19 am    
   39   19   25 1     
   40   19   20 1     
   41   20   21 1     
   42   20   22 2     
   43   21   42 1     
   44   21   43 1     
   45   22   23 1     
   46    7   45 1     
   47    7   46 1     
   48   11   47 1     
   49   11   48 1     
   50   15   49 1     
   51   18   50 1     
   52   18   51 1     
   53   22   52 1     
@<TRIPOS>SUBSTRUCTURE
      1 S1             1
@<TRIPOS>SET
LONE_PAIRS      STATIC     ATOMS    <user>   **** ""
8 45 46 47 48 49 50 51 52
DONOR_HYDROGENS      STATIC     ATOMS    <user>   **** ""
6 33 34 44 25 42 43
ATOM$BLUE        STATIC     ATOMS    COLORGROUP SYSTEM
8 45 46 47 48 49 50 51 52
ATOM$RED        STATIC     ATOMS    COLORGROUP SYSTEM
6 33 34 44 25 42 43
