AV-unprocessed.smi:837|AV-procd|sdf|3902|dock3
  -GOLD-   22720 1363D 1   1.00000     0.00000
 Structure written by MMmdl.
 48 50  0  0  0  0  0  0  0  0  2 V2000
  150.5449  140.7102  156.7855 C   0  0  0  0  0  0  0  0  0  0  0  0
  149.6611  141.0095  155.5541 C   0  0  2  0  0  0  0  0  0  0  0  0
  148.3271  141.6442  156.0072 C   0  0  0  0  0  0  0  0  0  0  0  0
  147.4399  142.0305  154.8152 C   0  0  0  0  0  0  0  0  0  0  0  0
  147.1684  140.8226  153.9101 C   0  0  0  0  0  0  0  0  0  0  0  0
  148.4847  140.1837  153.4348 C   0  0  0  0  0  0  0  0  0  0  0  0
  149.4367  139.7907  154.5967 C   0  0  1  0  0  0  0  0  0  0  0  0
  150.7012  139.3564  154.0283 N   0  5  0  0  0  0  0  0  0  0  0  0
  150.9179  138.0634  154.3630 C   0  0  0  0  0  0  0  0  0  0  0  0
  151.8957  137.3796  154.0614 O   0  0  0  0  0  0  0  0  0  0  0  0
  149.9030  137.5790  155.1030 N   0  0  0  0  0  0  0  0  0  0  0  0
  149.8402  136.2192  155.6562 C   0  0  0  0  0  0  0  0  0  0  0  0
  148.5004  135.5160  155.3940 C   0  0  0  0  0  0  0  0  0  0  0  0
  147.7147  135.2789  156.3132 O   0  0  0  0  0  0  0  0  0  0  0  0
  148.2472  135.2005  154.1148 N   0  0  0  0  0  0  0  0  0  0  0  0
  147.0402  134.5361  153.6385 C   0  0  0  0  0  0  0  0  0  0  0  0
  147.3624  133.4556  152.5935 C   0  0  0  0  0  0  0  0  0  0  0  0
  146.1147  132.9441  151.9001 C   0  0  0  0  0  0  0  0  0  0  0  0
  144.8362  133.3933  152.2898 C   0  0  0  0  0  0  0  0  0  0  0  0
  143.7066  132.8935  151.6133 C   0  0  0  0  0  0  0  0  0  0  0  0
  143.9051  131.9639  150.5727 C   0  0  0  0  0  0  0  0  0  0  0  0
  145.1248  131.5270  150.1910 N   0  0  0  0  0  0  0  0  0  0  0  0
  146.2025  132.0107  150.8453 C   0  0  0  0  0  0  0  0  0  0  0  0
  148.9727  138.5187  155.3042 C   0  0  0  0  0  0  0  0  0  0  0  0
  147.9294  138.4051  155.9492 O   0  0  0  0  0  0  0  0  0  0  0  0
  150.0772  139.9889  157.4563 H   0  0  0  0  0  0  0  0  0  0  0  0
  150.7273  141.6176  157.3613 H   0  0  0  0  0  0  0  0  0  0  0  0
  151.5182  140.3131  156.4965 H   0  0  0  0  0  0  0  0  0  0  0  0
  150.1884  141.7726  154.9785 H   0  0  0  0  0  0  0  0  0  0  0  0
  147.7848  140.9603  156.6602 H   0  0  0  0  0  0  0  0  0  0  0  0
  148.5272  142.5341  156.6047 H   0  0  0  0  0  0  0  0  0  0  0  0
  146.4973  142.4461  155.1724 H   0  0  0  0  0  0  0  0  0  0  0  0
  147.9266  142.8179  154.2380 H   0  0  0  0  0  0  0  0  0  0  0  0
  146.5610  140.0907  154.4421 H   0  0  0  0  0  0  0  0  0  0  0  0
  146.5796  141.1344  153.0471 H   0  0  0  0  0  0  0  0  0  0  0  0
  148.2565  139.3134  152.8170 H   0  0  0  0  0  0  0  0  0  0  0  0
  148.9915  140.8894  152.7744 H   0  0  0  0  0  0  0  0  0  0  0  0
  150.6388  135.6047  155.2379 H   0  0  0  0  0  0  0  0  0  0  0  0
  150.0262  136.2519  156.7311 H   0  0  0  0  0  0  0  0  0  0  0  0
  148.9439  135.4355  153.4225 H   0  0  0  0  0  0  0  0  0  0  0  0
  146.4943  134.1056  154.4797 H   0  0  0  0  0  0  0  0  0  0  0  0
  146.3897  135.2937  153.2009 H   0  0  0  0  0  0  0  0  0  0  0  0
  148.0490  133.8514  151.8440 H   0  0  0  0  0  0  0  0  0  0  0  0
  147.8732  132.6140  153.0634 H   0  0  0  0  0  0  0  0  0  0  0  0
  144.7218  134.1086  153.0915 H   0  0  0  0  0  0  0  0  0  0  0  0
  142.7119  133.2152  151.8848 H   0  0  0  0  0  0  0  0  0  0  0  0
  143.0614  131.5604  150.0326 H   0  0  0  0  0  0  0  0  0  0  0  0
  147.1633  131.6440  150.5147 H   0  0  0  0  0  0  0  0  0  0  0  0
  1  2  1  0  0  0  0
  1 26  1  0  0  0  0
  1 27  1  0  0  0  0
  1 28  1  0  0  0  0
  2  7  1  0  0  0  0
  2  3  1  0  0  0  0
  2 29  1  0  0  0  0
  3  4  1  0  0  0  0
  3 30  1  0  0  0  0
  3 31  1  0  0  0  0
  4  5  1  0  0  0  0
  4 32  1  0  0  0  0
  4 33  1  0  0  0  0
  5  6  1  0  0  0  0
  5 34  1  0  0  0  0
  5 35  1  0  0  0  0
  6  7  1  0  0  0  0
  6 36  1  0  0  0  0
  6 37  1  0  0  0  0
  7 24  1  0  0  0  0
  7  8  1  0  0  0  0
  8  9  1  0  0  0  0
  9 10  2  0  0  0  0
  9 11  1  0  0  0  0
 11 12  1  0  0  0  0
 11 24  1  0  0  0  0
 12 13  1  0  0  0  0
 12 38  1  0  0  0  0
 12 39  1  0  0  0  0
 13 14  2  0  0  0  0
 13 15  1  0  0  0  0
 15 16  1  0  0  0  0
 15 40  1  0  0  0  0
 16 17  1  0  0  0  0
 16 41  1  0  0  0  0
 16 42  1  0  0  0  0
 17 18  1  0  0  0  0
 17 43  1  0  0  0  0
 17 44  1  0  0  0  0
 18 23  1  0  0  0  0
 18 19  2  0  0  0  0
 19 20  1  0  0  0  0
 19 45  1  0  0  0  0
 20 21  2  0  0  0  0
 20 46  1  0  0  0  0
 21 22  1  0  0  0  0
 21 47  1  0  0  0  0
 22 23  2  0  0  0  0
 23 48  1  0  0  0  0
 24 25  2  0  0  0  0
M  CHG  1   8  -1
M  END
> <s_m_source_file>
AV-unprocessed.smi

> <i_m_source_file_index>
837

> <i_lp_mmshare_version>
43012

> <i_f3d_flags>
0

> <s_epik_input>
W0NIMl0xW0NIMl1bQ0gyXVtDSDJdW0NAQEhdKFtDSDNdKVtDQEBdMTJbTkhdQyg9TylOKEMyPU8pW0NIMl1DKD1PKVtOSF1bQ0gyXVtDSDJdYzNbY0hdW2NIXVtjSF1uW2NIXTM=

> <s_epik_cmdline>
J2VwaWtfcHl0aG9uJywgJy1waCcsICc3LjAnLCAnLXRuJywgJzgnLCAnLW1hJywgJzIwMCcsICctbWV0YWxfYmluZGluZycsICctaW1hZScsICc8aW5maWxlLm1hZT4nLCAnLW9tYWUnLCAnPG91dGZpbGUubWFlPic=

> <r_lp_tautomer_probability>
1

> <r_epik_Ionization_Penalty>
6.03002

> <r_epik_Ionization_Penalty_Charging>
6.01728

> <r_epik_Ionization_Penalty_Neutral>
0.0127382

> <r_epik_State_Penalty>
6.02713

> <r_epik_Charging_Adjusted_Penalty>
12.0444

> <i_epik_Tot_Q>
-1

> <i_epik_Tot_abs_Q>
1

> <r_epik_Metal_State_Penalty>
1.99078

> <b_epik_Metal_Only>
1

> <s_lp_Force_Field>
OPLS_2005

> <r_lp_Energy>
14.9732

> <b_lp_Chiralities_Consistent>
1

> <s_lp_Variant>
AV-unprocessed.smi:837-11

> <Gold.Version>
5.8.1

> <Gold.Id.Protein>
6NUR|6NUR_protein|mol2

> <Gold.PLP.Fitness>
48.1241

> <Gold.PLP.PLP>
-34.2707

> <Gold.PLP.part.hbond>
-3.2039

> <Gold.PLP.part.metal>
0.0000

> <Gold.PLP.part.buried>
1.8353

> <Gold.PLP.part.nonpolar>
-33.7616

> <Gold.PLP.part.repulsive>
1.4500

> <Gold.PLP.ligand.clash>
0.0000

> <Gold.PLP.ligand.torsion>
0.3452

> <Gold.PLP.Chemscore.Hbond>
2.8320

> <Gold.PLP.Chemscore.CHOScore>
2.0000

> <Gold.PLP.Chemscore.Metal>
0.0000

> <Gold.Chemscore.Hbonds>
donor molecule, donor type, donor heavy atom, donor atom, acceptor molecule, acceptor atom, score
      L1  H    15    40       P1  7948  0.75
      P1  H  7989  7998       L1     8  1.00
      P1  H 10752 10763       L1    10  1.00
      L1  C    21    47       P1 10952  0.85
      L1  C    23    48       P1 10747  0.89

> <Gold.PLP.Chemscore.Internal.Correction>
0.0479

> <Gold.Rescore>
     Score         DG    S(hbond)    S(metal)    S(lipo)     H(rot)  DE(clash)    DE(int)     intcor
     16.08     -19.03       2.47        0.00      84.75       1.81       1.46       1.49       ----

> <Gold.Chemscore.Fitness>
16.0812

> <Gold.Chemscore.DG>
-19.0281

> <Gold.Chemscore.ZeroCoef>
-5.4800

> <Gold.Chemscore.Hbond>
2.4740

> <Gold.Chemscore.Metal>
0.0000

> <Gold.Chemscore.Lipo>
84.7508

> <Gold.Chemscore.Internal_Hbond>
0.0000

> <Gold.Chemscore.DEClash>
1.4601

> <Gold.Chemscore.DEInternal>
1.4867

> <Gold.Chemscore.Rot>
1.8090

> <Gold.Chemscore.Internal.Correction>
   9.000000E+99

> <Gold.Chemscore.Hbonds>
donor molecule, donor type, donor heavy atom, donor atom, acceptor molecule, acceptor atom, score
      L1  H    15    40       P1  7948  0.53
      P1  H  7989  7998       L1     8  0.65
      P1  H 10752 10763       L1    10  0.91

> <Gold.Chemscore.Hbond.Weighted>
-8.2633

> <Gold.Chemscore.Metal.Weighted>
-0.0000

> <Gold.Chemscore.Lipo.Weighted>
-9.9158

> <Gold.Chemscore.Internal_Hbond.Weighted>
0.0000

> <Gold.Chemscore.DEClash.Weighted>
1.4601

> <Gold.Chemscore.DEInternal.Weighted>
1.4867

> <Gold.Chemscore.Rot.Weighted>
4.6310

> <Gold.Chemscore.Internal.Correction.Weighted>
   9.000000E+99

> <Gold.Protein.RotatedTorsions>
[ 6907 6896 6895 6894 ] final -174.45 input  -60.11 | X-H torsion
[ 7974 7965 7964 7962 ] final  159.40 input  175.53 | X-H torsion
[ 8008 7997 7996 7995 ] final   25.65 input   59.86 | X-H torsion
[ 10167 10162 10161 10158 ] final  -14.53 input  -65.29 | X-H torsion
[ 10718 10713 10712 10709 ] final -176.27 input   66.30 | X-H torsion
[ 10763 10752 10751 10750 ] final   32.50 input  -60.55 | X-H torsion
[ 11005 11000 10999 10996 ] final -156.57 input  -57.11 | X-H torsion

> <Gold.Protein.ActiveResidues>
 VAL166  LYS551  ARG553  GLY616  TRP617  ASP618  TYR619  PRO620  LYS621  CYS622 
 ASP623  PHE694  ASN695  SER759  ASP760  ASP761  ALA762  ILE779  LEU786  VAL792 
 PHE793  MET794  SER795  GLU796  ALA797  LYS798  CYS799  TRP800  GLU811  SER814 

> <Gold.Protein.RotatedAtoms>
  151.5725  133.3388  159.2992 H   0  0  0  0  0  0  0  0  0  0  0  0  # atno 6907 bound_to 6896
  150.8359  134.7635  159.6904 H   0  0  0  0  0  0  0  0  0  0  0  0  # atno 6908 bound_to 6896
  152.4435  134.5548  159.9929 H   0  0  0  0  0  0  0  0  0  0  0  0  # atno 6909 bound_to 6896
  144.7792  139.7612  143.6266 H   0  0  0  0  0  0  0  0  0  0  0  0  # atno 7974 bound_to 7965
  155.0151  140.3141  155.4815 H   0  0  0  0  0  0  0  0  0  0  0  0  # atno 8008 bound_to 7997
  156.2902  140.2207  156.5208 H   0  0  0  0  0  0  0  0  0  0  0  0  # atno 8009 bound_to 7997
  154.7501  140.0467  157.0874 H   0  0  0  0  0  0  0  0  0  0  0  0  # atno 8010 bound_to 7997
  140.7203  143.5312  150.9517 H   0  0  0  0  0  0  0  0  0  0  0  0  # atno 10167 bound_to 10162
  156.8122  130.9590  151.3115 H   0  0  0  0  0  0  0  0  0  0  0  0  # atno 10718 bound_to 10713
  153.0259  135.6411  154.1365 H   0  0  0  0  0  0  0  0  0  0  0  0  # atno 10763 bound_to 10752
  154.1094  135.2854  155.3235 H   0  0  0  0  0  0  0  0  0  0  0  0  # atno 10764 bound_to 10752
  154.6342  135.5482  153.7778 H   0  0  0  0  0  0  0  0  0  0  0  0  # atno 10765 bound_to 10752
  140.6742  134.4215  157.5230 H   0  0  0  0  0  0  0  0  0  0  0  0  # atno 11005 bound_to 11000
  146.1990  139.5274  142.9755 LP  0  0  0  0  0  0  0  0  0  0  0  0  # atno 17320 bound_to 7965
  145.6098  141.0341  143.1973 LP  0  0  0  0  0  0  0  0  0  0  0  0  # atno 17321 bound_to 7965
  139.9033  143.6810  152.3128 LP  0  0  0  0  0  0  0  0  0  0  0  0  # atno 17342 bound_to 10162
  139.7167  144.7610  151.1023 LP  0  0  0  0  0  0  0  0  0  0  0  0  # atno 17343 bound_to 10162
  157.6500  130.8876  149.9614 LP  0  0  0  0  0  0  0  0  0  0  0  0  # atno 17370 bound_to 10713
  156.1038  130.3654  150.0171 LP  0  0  0  0  0  0  0  0  0  0  0  0  # atno 17371 bound_to 10713
  139.8972  134.8642  156.2054 LP  0  0  0  0  0  0  0  0  0  0  0  0  # atno 17394 bound_to 11000
  141.0369  133.6959  156.1527 LP  0  0  0  0  0  0  0  0  0  0  0  0  # atno 17395 bound_to 11000

$$$$
