AV-unprocessed.smi:1971|AV-procd|sdf|7968|dock2
  -GOLD-   2272010143D 1   1.00000     0.00000
 Structure written by MMmdl.
 43 44  0  0  0  0  0  0  0  0  3 V2000
  146.5959  138.8512  151.8423 C   0  0  0  0  0  0  0  0  0  0  0  0
  146.7447  138.3853  153.2975 C   0  0  0  0  0  0  0  0  0  0  0  0
  148.1487  138.0596  153.6511 N   0  3  0  0  0  0  0  0  0  0  0  0
  148.2385  137.0166  154.7019 C   0  0  0  0  0  0  0  0  0  0  0  0
  149.7142  136.6795  154.9998 C   0  0  0  0  0  0  0  0  0  0  0  0
  150.4544  137.8578  155.4733 N   0  0  0  0  0  0  0  0  0  0  0  0
  150.0500  138.3876  156.7958 C   0  0  2  0  0  0  0  0  0  0  0  0
  150.9589  139.5751  157.1956 C   0  0  0  0  0  0  0  0  0  0  0  0
  150.0835  137.2893  157.8899 C   0  0  0  0  0  0  0  0  0  0  0  0
  149.1150  137.5500  158.9485 N   0  0  0  0  0  0  0  0  0  0  0  0
  148.5419  136.6169  159.7195 C   0  0  0  0  0  0  0  0  0  0  0  0
  148.8334  135.4288  159.5644 O   0  0  0  0  0  0  0  0  0  0  0  0
  147.6662  137.1187  160.6193 N   0  5  0  0  0  0  0  0  0  0  0  0
  146.8724  136.2907  161.3180 C   0  0  0  0  0  0  0  0  0  0  0  0
  147.1908  135.0157  161.5695 N   0  0  0  0  0  0  0  0  0  0  0  0
  146.2202  134.3357  162.3074 C   0  0  0  0  0  0  0  0  0  0  0  0
  145.1328  135.1086  162.6176 C   0  0  0  0  0  0  0  0  0  0  0  0
  145.2961  136.7228  161.9874 S   0  0  0  0  0  0  0  0  0  0  0  0
  150.4062  138.8334  154.3740 C   0  0  0  0  0  0  0  0  0  0  0  0
  148.9589  139.2467  154.0265 C   0  0  0  0  0  0  0  0  0  0  0  0
  145.5448  139.0017  151.5948 H   0  0  0  0  0  0  0  0  0  0  0  0
  146.9944  138.1106  151.1482 H   0  0  0  0  0  0  0  0  0  0  0  0
  147.1079  139.7956  151.6595 H   0  0  0  0  0  0  0  0  0  0  0  0
  146.3499  139.1354  153.9844 H   0  0  0  0  0  0  0  0  0  0  0  0
  146.1295  137.4938  153.4274 H   0  0  0  0  0  0  0  0  0  0  0  0
  147.7158  137.3397  155.6031 H   0  0  0  0  0  0  0  0  0  0  0  0
  147.7320  136.1148  154.3558 H   0  0  0  0  0  0  0  0  0  0  0  0
  149.7915  135.8501  155.7001 H   0  0  0  0  0  0  0  0  0  0  0  0
  150.1889  136.3132  154.0883 H   0  0  0  0  0  0  0  0  0  0  0  0
  149.0263  138.7554  156.7428 H   0  0  0  0  0  0  0  0  0  0  0  0
  150.7373  139.9368  158.1992 H   0  0  0  0  0  0  0  0  0  0  0  0
  150.8287  140.4380  156.5445 H   0  0  0  0  0  0  0  0  0  0  0  0
  152.0118  139.2916  157.1784 H   0  0  0  0  0  0  0  0  0  0  0  0
  149.8259  136.3144  157.4777 H   0  0  0  0  0  0  0  0  0  0  0  0
  151.0819  137.2102  158.3232 H   0  0  0  0  0  0  0  0  0  0  0  0
  148.8538  138.5118  159.1082 H   0  0  0  0  0  0  0  0  0  0  0  0
  146.3855  133.3005  162.5669 H   0  0  0  0  0  0  0  0  0  0  0  0
  144.2504  134.8290  163.1729 H   0  0  0  0  0  0  0  0  0  0  0  0
  151.0117  139.7107  154.5931 H   0  0  0  0  0  0  0  0  0  0  0  0
  150.8719  138.3867  153.4943 H   0  0  0  0  0  0  0  0  0  0  0  0
  148.9903  139.9467  153.1925 H   0  0  0  0  0  0  0  0  0  0  0  0
  148.4906  139.7782  154.8553 H   0  0  0  0  0  0  0  0  0  0  0  0
  148.5748  137.6619  152.8264 H   0  0  0  0  0  0  0  0  0  0  0  0
  1  2  1  0  0  0  0
  1 21  1  0  0  0  0
  1 22  1  0  0  0  0
  1 23  1  0  0  0  0
  2  3  1  0  0  0  0
  2 24  1  0  0  0  0
  2 25  1  0  0  0  0
  3 20  1  0  0  0  0
  3  4  1  0  0  0  0
  3 43  1  0  0  0  0
  4  5  1  0  0  0  0
  4 26  1  0  0  0  0
  4 27  1  0  0  0  0
  5  6  1  0  0  0  0
  5 28  1  0  0  0  0
  5 29  1  0  0  0  0
  6  7  1  0  0  0  0
  6 19  1  0  0  0  0
  7  8  1  0  0  0  0
  7  9  1  0  0  0  0
  7 30  1  0  0  0  0
  8 31  1  0  0  0  0
  8 32  1  0  0  0  0
  8 33  1  0  0  0  0
  9 10  1  0  0  0  0
  9 34  1  0  0  0  0
  9 35  1  0  0  0  0
 10 11  1  0  0  0  0
 10 36  1  0  0  0  0
 11 12  2  0  0  0  0
 11 13  1  0  0  0  0
 13 14  1  0  0  0  0
 14 18  1  0  0  0  0
 14 15  2  0  0  0  0
 15 16  1  0  0  0  0
 16 17  2  0  0  0  0
 16 37  1  0  0  0  0
 17 18  1  0  0  0  0
 17 38  1  0  0  0  0
 19 20  1  0  0  0  0
 19 39  1  0  0  0  0
 19 40  1  0  0  0  0
 20 41  1  0  0  0  0
 20 42  1  0  0  0  0
M  CHG  1   3   1
M  CHG  1  13  -1
M  END
> <s_m_source_file>
AV-unprocessed.smi

> <i_m_source_file_index>
1971

> <i_lp_mmshare_version>
43012

> <i_f3d_flags>
0

> <s_epik_input>
W0NIM11bQ0gyXU4xW0NIMl1bQ0gyXU4oW0NIMl1bQ0gyXTEpW0NASF0oW0NIM10pW0NIMl1bTkhdQyg9TylbTkhdYzJuW2NIXVtjSF1zMg==

> <s_epik_cmdline>
J2VwaWtfcHl0aG9uJywgJy1waCcsICc3LjAnLCAnLXRuJywgJzgnLCAnLW1hJywgJzIwMCcsICctbWV0YWxfYmluZGluZycsICctaW1hZScsICc8aW5maWxlLm1hZT4nLCAnLW9tYWUnLCAnPG91dGZpbGUubWFlPic=

> <r_lp_tautomer_probability>
0.999

> <r_epik_Ionization_Penalty>
7.06996

> <r_epik_Ionization_Penalty_Charging>
5.92347

> <r_epik_Ionization_Penalty_Neutral>
1.14649

> <r_epik_State_Penalty>
6.04391

> <r_epik_Charging_Adjusted_Penalty>
11.9674

> <i_epik_Tot_Q>
0

> <i_epik_Tot_abs_Q>
2

> <r_epik_Metal_State_Penalty>
2.01291

> <b_epik_Metal_Only>
1

> <s_lp_Force_Field>
OPLS_2005

> <r_lp_Energy>
13.2012

> <b_lp_Chiralities_Consistent>
1

> <s_lp_Variant>
AV-unprocessed.smi:1971-7

> <Gold.Version>
5.8.1

> <Gold.Id.Protein>
6NUR|6NUR_protein|mol2

> <Gold.PLP.Fitness>
47.6307

> <Gold.PLP.PLP>
-30.0564

> <Gold.PLP.part.hbond>
-4.0000

> <Gold.PLP.part.metal>
0.0000

> <Gold.PLP.part.buried>
-2.9299

> <Gold.PLP.part.nonpolar>
-24.4431

> <Gold.PLP.part.repulsive>
0.2863

> <Gold.PLP.ligand.clash>
0.0000

> <Gold.PLP.ligand.torsion>
0.9840

> <Gold.PLP.Chemscore.Hbond>
6.4240

> <Gold.PLP.Chemscore.CHOScore>
0.0000

> <Gold.PLP.Chemscore.Metal>
0.0000

> <Gold.Chemscore.Hbonds>
donor molecule, donor type, donor heavy atom, donor atom, acceptor molecule, acceptor atom, score
      L1  H     3    43       P1  7948  2.00
      P1  H  6896  6909       L1    12  1.00
      P1  H  6931  6943       L1    13  0.98
      P1  H  6934  6947       L1    13  1.89

> <Gold.PLP.Chemscore.Internal.Correction>
0.2704

> <Gold.Rescore>
     Score         DG    S(hbond)    S(metal)    S(lipo)     H(rot)  DE(clash)    DE(int)     intcor
     15.43     -18.07       2.76        0.00      67.04       1.75       0.03       2.61       ----

> <Gold.Chemscore.Fitness>
15.4283

> <Gold.Chemscore.DG>
-18.0680

> <Gold.Chemscore.ZeroCoef>
-5.4800

> <Gold.Chemscore.Hbond>
2.7621

> <Gold.Chemscore.Metal>
0.0000

> <Gold.Chemscore.Lipo>
67.0423

> <Gold.Chemscore.Internal_Hbond>
0.0000

> <Gold.Chemscore.DEClash>
0.0288

> <Gold.Chemscore.DEInternal>
2.6110

> <Gold.Chemscore.Rot>
1.7505

> <Gold.Chemscore.Internal.Correction>
   9.000000E+99

> <Gold.Chemscore.Hbonds>
donor molecule, donor type, donor heavy atom, donor atom, acceptor molecule, acceptor atom, score
      L1  H     3    43       P1  7948  0.94
      P1  H  6896  6909       L1    12  0.93
      P1  H  6931  6943       L1    13  0.11
      P1  H  6934  6947       L1    13  0.73

> <Gold.Chemscore.Hbond.Weighted>
-9.2254

> <Gold.Chemscore.Metal.Weighted>
-0.0000

> <Gold.Chemscore.Lipo.Weighted>
-7.8440

> <Gold.Chemscore.Internal_Hbond.Weighted>
0.0000

> <Gold.Chemscore.DEClash.Weighted>
0.0288

> <Gold.Chemscore.DEInternal.Weighted>
2.6110

> <Gold.Chemscore.Rot.Weighted>
4.4813

> <Gold.Chemscore.Internal.Correction.Weighted>
   9.000000E+99

> <Gold.Protein.RotatedTorsions>
[ 6907 6896 6895 6894 ] final   47.86 input  -60.11 | X-H torsion
[ 7974 7965 7964 7962 ] final  -52.62 input  175.53 | X-H torsion
[ 8008 7997 7996 7995 ] final  -36.21 input   59.86 | X-H torsion
[ 10167 10162 10161 10158 ] final   20.95 input  -65.29 | X-H torsion
[ 10718 10713 10712 10709 ] final  124.14 input   66.30 | X-H torsion
[ 10763 10752 10751 10750 ] final  -37.15 input  -60.55 | X-H torsion
[ 11005 11000 10999 10996 ] final   83.79 input  -57.11 | X-H torsion

> <Gold.Protein.ActiveResidues>
 VAL166  LYS551  ARG553  GLY616  TRP617  ASP618  TYR619  PRO620  LYS621  CYS622 
 ASP623  PHE694  ASN695  SER759  ASP760  ASP761  ALA762  ILE779  LEU786  VAL792 
 PHE793  MET794  SER795  GLU796  ALA797  LYS798  CYS799  TRP800  GLU811  SER814 

> <Gold.Protein.RotatedAtoms>
  152.2729  134.7913  160.0410 H   0  0  0  0  0  0  0  0  0  0  0  0  # atno 6907 bound_to 6896
  151.8520  133.3436  159.3684 H   0  0  0  0  0  0  0  0  0  0  0  0  # atno 6908 bound_to 6896
  150.7159  134.5218  159.5701 H   0  0  0  0  0  0  0  0  0  0  0  0  # atno 6909 bound_to 6896
  145.9060  140.7955  142.9719 H   0  0  0  0  0  0  0  0  0  0  0  0  # atno 7974 bound_to 7965
  154.4078  140.1636  156.2338 H   0  0  0  0  0  0  0  0  0  0  0  0  # atno 8008 bound_to 7997
  155.9260  140.3418  155.6188 H   0  0  0  0  0  0  0  0  0  0  0  0  # atno 8009 bound_to 7997
  155.7164  140.0763  157.2340 H   0  0  0  0  0  0  0  0  0  0  0  0  # atno 8010 bound_to 7997
  140.5464  143.9587  150.6550 H   0  0  0  0  0  0  0  0  0  0  0  0  # atno 10167 bound_to 10162
  157.5608  131.1089  150.8541 H   0  0  0  0  0  0  0  0  0  0  0  0  # atno 10718 bound_to 10713
  153.8915  135.6811  153.4760 H   0  0  0  0  0  0  0  0  0  0  0  0  # atno 10763 bound_to 10752
  153.1178  135.4753  154.9142 H   0  0  0  0  0  0  0  0  0  0  0  0  # atno 10764 bound_to 10752
  154.7620  135.3213  154.8313 H   0  0  0  0  0  0  0  0  0  0  0  0  # atno 10765 bound_to 10752
  139.9020  134.8170  156.2357 H   0  0  0  0  0  0  0  0  0  0  0  0  # atno 11005 bound_to 11000
  144.6739  140.1751  143.7411 LP  0  0  0  0  0  0  0  0  0  0  0  0  # atno 17320 bound_to 7965
  145.8732  139.2283  143.1649 LP  0  0  0  0  0  0  0  0  0  0  0  0  # atno 17321 bound_to 7965
  140.3001  143.3266  152.0980 LP  0  0  0  0  0  0  0  0  0  0  0  0  # atno 17342 bound_to 10162
  139.5009  144.6702  151.6261 LP  0  0  0  0  0  0  0  0  0  0  0  0  # atno 17343 bound_to 10162
  156.9039  130.5256  149.5282 LP  0  0  0  0  0  0  0  0  0  0  0  0  # atno 17370 bound_to 10713
  156.0661  130.5704  150.9292 LP  0  0  0  0  0  0  0  0  0  0  0  0  # atno 17371 bound_to 10713
  141.0317  133.6985  156.1441 LP  0  0  0  0  0  0  0  0  0  0  0  0  # atno 17394 bound_to 11000
  140.7087  134.4485  157.5583 LP  0  0  0  0  0  0  0  0  0  0  0  0  # atno 17395 bound_to 11000

$$$$
