#       Name:                AV-unprocessed.smi:3146
#       Creating user name   scv26
#       Creation time:       Fri Mar 27 17:39:17 2020


#       File generated by GOLD software.
#

@<TRIPOS>MOLECULE
AV-unprocessed.smi:3146
    38    39     1
SMALL
NO_CHARGES


@<TRIPOS>ATOM
      1 ****        -2.7211  -0.7648  -0.3924 O.2            1 S1                 0.0000
      2 ****        -2.0660   0.2345  -0.0900 C.2            1 S1                 0.0000
      3 ****        -0.5299   0.1678  -0.0651 C.3            1 S1                 0.0000
      4 ****        -0.0038  -1.1692  -0.3694 N.3            1 S1                 0.0000
      5 ****         1.4510  -1.1631  -0.3631 C.3            1 S1                 0.0000
      6 ****         1.9706  -2.5715  -0.6865 C.3            1 S1                 0.0000
      7 ****         3.4199  -2.6212  -0.6795 N.pl3          1 S1                 0.0000
      8 ****         4.2570  -3.0842   0.3140 C.2            1 S1                 0.0000
      9 ****         5.5389  -2.9272  -0.1294 C.2            1 S1                 0.0000
     10 ****         5.3815  -2.3533  -1.4223 C.2            1 S1                 0.0000
     11 ****         4.1121  -2.1707  -1.7483 N.2            1 S1                 0.0000
     12 ****        -2.6557   1.4056   0.2291 N.am           1 S1                 0.0000
     13 ****        -4.1043   1.5991   0.2592 C.3            1 S1                 0.0000
     14 ****        -4.3267   2.9560   0.9273 C.3            1 S1                 0.0000
     15 ****        -3.0403   3.7216   0.6513 C.3            1 S1                 0.0000
     16 ****        -1.9618   2.6388   0.5999 C.3            1 S1                 0.0000
     17 ****        -0.1397   0.8802  -0.7934 H              1 S1                 0.0000
     18 ****        -0.1787   0.4765   0.9206 H              1 S1                 0.0000
     19 ****        -0.3397  -1.8555   0.2914 H              1 S1                 0.0000
     20 ****         1.8212  -0.4474  -1.0988 H              1 S1                 0.0000
     21 ****         1.8153  -0.8470   0.6156 H              1 S1                 0.0000
     22 ****         1.5972  -3.2928   0.0419 H              1 S1                 0.0000
     23 ****         1.6156  -2.8974  -1.6656 H              1 S1                 0.0000
     24 ****         3.8752  -3.4814   1.2433 H              1 S1                 0.0000
     25 ****         6.4504  -3.1834   0.3899 H              1 S1                 0.0000
     26 ****         6.1468  -2.0656  -2.1283 H              1 S1                 0.0000
     27 ****        -4.4817   1.6091  -0.7644 H              1 S1                 0.0000
     28 ****        -4.6159   0.8024   0.8018 H              1 S1                 0.0000
     29 ****        -5.2138   3.4701   0.5562 H              1 S1                 0.0000
     30 ****        -4.4454   2.8186   2.0030 H              1 S1                 0.0000
     31 ****        -3.1108   4.2133  -0.3198 H              1 S1                 0.0000
     32 ****        -2.8348   4.4879   1.3993 H              1 S1                 0.0000
     33 ****        -1.5051   2.5098   1.5823 H              1 S1                 0.0000
     34 ****        -1.1773   2.9045  -0.1097 H              1 S1                 0.0000
     35 ****        -2.2537  -1.6186  -0.6215 LP             1 S1                 0.0000
     36 ****        -3.7200  -0.7217  -0.4087 LP             1 S1                 0.0000
     37 ****        -0.3297  -1.4171  -1.2817 LP             1 S1                 0.0000
     38 ****         3.7471  -1.7855  -2.5959 LP             1 S1                 0.0000
@<TRIPOS>BOND
    1    1    2 2     
    2    2    3 1     
    3    2   12 am    
    4    3    4 1     
    5    3   17 1     
    6    3   18 1     
    7    4    5 1     
    8    4   19 1     
    9    5    6 1     
   10    5   20 1     
   11    5   21 1     
   12    6    7 1     
   13    6   22 1     
   14    6   23 1     
   15    7   11 1     
   16    7    8 1     
   17    8    9 2     
   18    8   24 1     
   19    9   10 1     
   20    9   25 1     
   21   10   11 2     
   22   10   26 1     
   23   12   16 1     
   24   12   13 1     
   25   13   14 1     
   26   13   27 1     
   27   13   28 1     
   28   14   15 1     
   29   14   29 1     
   30   14   30 1     
   31   15   16 1     
   32   15   31 1     
   33   15   32 1     
   34   16   33 1     
   35   16   34 1     
   36    1   35 1     
   37    1   36 1     
   38    4   37 1     
   39   11   38 1     
@<TRIPOS>SUBSTRUCTURE
      1 S1             1
@<TRIPOS>SET
LONE_PAIRS      STATIC     ATOMS    <user>   **** ""
4 35 36 37 38
DONOR_HYDROGENS      STATIC     ATOMS    <user>   **** ""
1 19
ATOM$BLUE        STATIC     ATOMS    COLORGROUP SYSTEM
4 35 36 37 38
ATOM$RED        STATIC     ATOMS    COLORGROUP SYSTEM
1 19
