AV-unprocessed.smi:1510|AV-procd|sdf|6096|dock6
  -GOLD-   22720 6223D 1   1.00000     0.00000
 Structure written by MMmdl.
 33 34  0  0  0  0  0  0  0  0  1 V2000
  153.4338  139.2815  157.6981 O   0  0  0  0  0  0  0  0  0  0  0  0
  152.4878  139.9261  158.1528 C   0  0  0  0  0  0  0  0  0  0  0  0
  152.6340  140.6998  159.4700 C   0  0  0  0  0  0  0  0  0  0  0  0
  152.3677  142.1369  159.3165 N   0  0  0  0  0  0  0  0  0  0  0  0
  151.9588  142.5069  158.0442 N   0  0  0  0  0  0  0  0  0  0  0  0
  151.6825  143.7413  157.7902 C   0  0  0  0  0  0  0  0  0  0  0  0
  151.2758  144.0637  156.5189 O   0  0  0  0  0  0  0  0  0  0  0  0
  151.7964  144.7598  158.8109 C   0  0  0  0  0  0  0  0  0  0  0  0
  152.1990  144.3900  160.0464 C   0  0  0  0  0  0  0  0  0  0  0  0
  152.5171  142.9981  160.3699 C   0  0  0  0  0  0  0  0  0  0  0  0
  152.8844  142.6322  161.4865 O   0  0  0  0  0  0  0  0  0  0  0  0
  151.2867  139.9891  157.5591 N   0  0  0  0  0  0  0  0  0  0  0  0
  150.9438  139.3602  156.2886 C   0  0  0  0  0  0  0  0  0  0  0  0
  149.6286  139.9081  155.7056 C   0  0  2  0  0  0  0  0  0  0  0  0
  148.9378  138.9893  154.6997 C   0  0  0  0  0  0  0  0  0  0  0  0
  148.0811  139.9492  153.8917 C   0  0  0  0  0  0  0  0  0  0  0  0
  148.7156  141.3212  154.1457 C   0  0  0  0  0  0  0  0  0  0  0  0
  149.8735  141.0710  154.9325 O   0  0  0  0  0  0  0  0  0  0  0  0
  150.3827  144.3589  156.6090 H   0  0  0  0  0  0  0  0  0  0  0  0
  151.9705  140.2793  160.2283 H   0  0  0  0  0  0  0  0  0  0  0  0
  153.6463  140.5384  159.8448 H   0  0  0  0  0  0  0  0  0  0  0  0
  151.5630  145.7889  158.5805 H   0  0  0  0  0  0  0  0  0  0  0  0
  152.2886  145.1400  160.8184 H   0  0  0  0  0  0  0  0  0  0  0  0
  150.5646  140.5350  158.0064 H   0  0  0  0  0  0  0  0  0  0  0  0
  151.7586  139.4923  155.5750 H   0  0  0  0  0  0  0  0  0  0  0  0
  150.8540  138.2872  156.4599 H   0  0  0  0  0  0  0  0  0  0  0  0
  148.9340  140.1665  156.5071 H   0  0  0  0  0  0  0  0  0  0  0  0
  149.6767  138.5199  154.0489 H   0  0  0  0  0  0  0  0  0  0  0  0
  148.3569  138.1995  155.1773 H   0  0  0  0  0  0  0  0  0  0  0  0
  148.0787  139.6861  152.8337 H   0  0  0  0  0  0  0  0  0  0  0  0
  147.0485  139.9399  154.2422 H   0  0  0  0  0  0  0  0  0  0  0  0
  148.9829  141.8340  153.2215 H   0  0  0  0  0  0  0  0  0  0  0  0
  148.0323  141.9623  154.7040 H   0  0  0  0  0  0  0  0  0  0  0  0
  1  2  2  0  0  0  0
  2  3  1  0  0  0  0
  2 12  1  0  0  0  0
  3 20  1  0  0  0  0
  3 21  1  0  0  0  0
  3  4  1  0  0  0  0
  4  5  1  0  0  0  0
  4 10  1  0  0  0  0
  5  6  2  0  0  0  0
  6  7  1  0  0  0  0
  6  8  1  0  0  0  0
  7 19  1  0  0  0  0
  8 22  1  0  0  0  0
  8  9  2  0  0  0  0
  9 23  1  0  0  0  0
  9 10  1  0  0  0  0
 10 11  2  0  0  0  0
 12 13  1  0  0  0  0
 12 24  1  0  0  0  0
 13 14  1  0  0  0  0
 13 25  1  0  0  0  0
 13 26  1  0  0  0  0
 14 18  1  0  0  0  0
 14 15  1  0  0  0  0
 14 27  1  0  0  0  0
 15 16  1  0  0  0  0
 15 28  1  0  0  0  0
 15 29  1  0  0  0  0
 16 17  1  0  0  0  0
 16 30  1  0  0  0  0
 16 31  1  0  0  0  0
 17 18  1  0  0  0  0
 17 32  1  0  0  0  0
 17 33  1  0  0  0  0
M  END
> <s_m_source_file>
AV-unprocessed.smi

> <i_m_source_file_index>
1510

> <i_lp_mmshare_version>
43012

> <i_f3d_flags>
0

> <s_epik_input>
TzFbQ0gyXVtDSDJdW0NIMl1bQ0BIXTFbQ0gyXVtOSF1DKD1PKVtDSDJdbjJbbkhdYyg9TylbY0hdW2NIXWMyPU8=

> <s_epik_cmdline>
J2VwaWtfcHl0aG9uJywgJy1waCcsICc3LjAnLCAnLXRuJywgJzgnLCAnLW1hJywgJzIwMCcsICctbWV0YWxfYmluZGluZycsICctaW1hZScsICc8aW5maWxlLm1hZT4nLCAnLW9tYWUnLCAnPG91dGZpbGUubWFlPic=

> <r_lp_tautomer_probability>
0.9996

> <r_epik_Ionization_Penalty>
2.13037

> <r_epik_Ionization_Penalty_Charging>
3.76e-08

> <r_epik_Ionization_Penalty_Neutral>
2.13037

> <r_epik_State_Penalty>
1.70753

> <r_epik_Charging_Adjusted_Penalty>
1.70753

> <i_epik_Tot_Q>
0

> <i_epik_Tot_abs_Q>
0

> <r_epik_Metal_State_Penalty>
1.70753

> <b_epik_Metal_Only>
0

> <s_lp_Force_Field>
OPLS_2005

> <r_lp_Energy>
28.2415

> <b_lp_Chiralities_Consistent>
1

> <s_lp_Variant>
AV-unprocessed.smi:1510-3

> <Gold.Version>
5.8.1

> <Gold.Id.Protein>
6NUR|6NUR_protein|mol2

> <Gold.PLP.Fitness>
41.6470

> <Gold.PLP.PLP>
-35.8156

> <Gold.PLP.part.hbond>
-2.9452

> <Gold.PLP.part.metal>
0.0000

> <Gold.PLP.part.buried>
-1.9544

> <Gold.PLP.part.nonpolar>
-30.4493

> <Gold.PLP.part.repulsive>
0.2472

> <Gold.PLP.ligand.clash>
0.0000

> <Gold.PLP.ligand.torsion>
0.3675

> <Gold.PLP.Chemscore.Hbond>
2.1858

> <Gold.PLP.Chemscore.CHOScore>
0.0000

> <Gold.PLP.Chemscore.Metal>
0.0000

> <Gold.Chemscore.Hbonds>
donor molecule, donor type, donor heavy atom, donor atom, acceptor molecule, acceptor atom, score
      L1  H     7    19       P1  8028  0.86
      P1  H  7989  7998       L1    18  0.27
      P1  H  7997  8010       L1     1  0.96

> <Gold.PLP.Chemscore.Internal.Correction>
0.0090

> <Gold.Rescore>
     Score         DG    S(hbond)    S(metal)    S(lipo)     H(rot)  DE(clash)    DE(int)     intcor
     12.38     -13.36       2.30        0.00      60.74       2.69       0.39       0.59       ----

> <Gold.Chemscore.Fitness>
12.3810

> <Gold.Chemscore.DG>
-13.3614

> <Gold.Chemscore.ZeroCoef>
-5.4800

> <Gold.Chemscore.Hbond>
2.2965

> <Gold.Chemscore.Metal>
0.0000

> <Gold.Chemscore.Lipo>
60.7432

> <Gold.Chemscore.Internal_Hbond>
0.0000

> <Gold.Chemscore.DEClash>
0.3877

> <Gold.Chemscore.DEInternal>
0.5928

> <Gold.Chemscore.Rot>
2.6937

> <Gold.Chemscore.Internal.Correction>
   9.000000E+99

> <Gold.Chemscore.Hbonds>
donor molecule, donor type, donor heavy atom, donor atom, acceptor molecule, acceptor atom, score
      L1  H     7    19       P1  8028  0.84
      P1  H  7989  7998       L1    18  0.14
      P1  H  7997  8010       L1     1  0.85

> <Gold.Chemscore.Hbond.Weighted>
-7.6704

> <Gold.Chemscore.Metal.Weighted>
-0.0000

> <Gold.Chemscore.Lipo.Weighted>
-7.1070

> <Gold.Chemscore.Internal_Hbond.Weighted>
0.0000

> <Gold.Chemscore.DEClash.Weighted>
0.3877

> <Gold.Chemscore.DEInternal.Weighted>
0.5928

> <Gold.Chemscore.Rot.Weighted>
6.8959

> <Gold.Chemscore.Internal.Correction.Weighted>
   9.000000E+99

> <Gold.Protein.RotatedTorsions>
[ 6907 6896 6895 6894 ] final -113.37 input  -60.11 | X-H torsion
[ 7974 7965 7964 7962 ] final   -4.32 input  175.53 | X-H torsion
[ 8008 7997 7996 7995 ] final   61.38 input   59.86 | X-H torsion
[ 10167 10162 10161 10158 ] final  -61.44 input  -65.29 | X-H torsion
[ 10718 10713 10712 10709 ] final  118.12 input   66.30 | X-H torsion
[ 10763 10752 10751 10750 ] final  175.94 input  -60.55 | X-H torsion
[ 11005 11000 10999 10996 ] final  119.78 input  -57.11 | X-H torsion

> <Gold.Protein.ActiveResidues>
 VAL166  LYS551  ARG553  GLY616  TRP617  ASP618  TYR619  PRO620  LYS621  CYS622 
 ASP623  PHE694  ASN695  SER759  ASP760  ASP761  ALA762  ILE779  LEU786  VAL792 
 PHE793  MET794  SER795  GLU796  ALA797  LYS798  CYS799  TRP800  GLU811  SER814 

> <Gold.Protein.RotatedAtoms>
  150.7824  133.8954  159.3325 H   0  0  0  0  0  0  0  0  0  0  0  0  # atno 6907 bound_to 6896
  151.6813  135.0959  160.0226 H   0  0  0  0  0  0  0  0  0  0  0  0  # atno 6908 bound_to 6896
  152.3879  133.6599  159.6249 H   0  0  0  0  0  0  0  0  0  0  0  0  # atno 6909 bound_to 6896
  146.2374  140.1853  142.8332 H   0  0  0  0  0  0  0  0  0  0  0  0  # atno 7974 bound_to 7965
  155.5974  140.3493  155.4584 H   0  0  0  0  0  0  0  0  0  0  0  0  # atno 8008 bound_to 7997
  156.0254  140.1263  157.0338 H   0  0  0  0  0  0  0  0  0  0  0  0  # atno 8009 bound_to 7997
  154.4331  140.1054  156.6009 H   0  0  0  0  0  0  0  0  0  0  0  0  # atno 8010 bound_to 7997
  140.6006  143.2360  151.5938 H   0  0  0  0  0  0  0  0  0  0  0  0  # atno 10167 bound_to 10162
  157.6051  131.1044  150.7711 H   0  0  0  0  0  0  0  0  0  0  0  0  # atno 10718 bound_to 10713
  154.4743  135.2772  155.1619 H   0  0  0  0  0  0  0  0  0  0  0  0  # atno 10763 bound_to 10752
  154.3355  135.6181  153.5575 H   0  0  0  0  0  0  0  0  0  0  0  0  # atno 10764 bound_to 10752
  152.9868  135.5776  154.5131 H   0  0  0  0  0  0  0  0  0  0  0  0  # atno 10765 bound_to 10752
  139.9160  134.9631  156.7707 H   0  0  0  0  0  0  0  0  0  0  0  0  # atno 11005 bound_to 11000
  144.9901  140.8539  143.5344 LP  0  0  0  0  0  0  0  0  0  0  0  0  # atno 17320 bound_to 7965
  145.1858  139.2327  143.5268 LP  0  0  0  0  0  0  0  0  0  0  0  0  # atno 17321 bound_to 7965
  139.5288  144.2978  152.1099 LP  0  0  0  0  0  0  0  0  0  0  0  0  # atno 17342 bound_to 10162
  140.2158  144.4517  150.6365 LP  0  0  0  0  0  0  0  0  0  0  0  0  # atno 17343 bound_to 10162
  156.8101  130.4949  149.5357 LP  0  0  0  0  0  0  0  0  0  0  0  0  # atno 17370 bound_to 10713
  156.1135  130.6058  151.0085 LP  0  0  0  0  0  0  0  0  0  0  0  0  # atno 17371 bound_to 10713
  140.6623  133.9634  155.7811 LP  0  0  0  0  0  0  0  0  0  0  0  0  # atno 17394 bound_to 11000
  141.0635  134.0311  157.3626 LP  0  0  0  0  0  0  0  0  0  0  0  0  # atno 17395 bound_to 11000

$$$$
