AV-unprocessed.smi:1985|AV-procd|sdf|8042|dock2
  -GOLD-   2272010233D 1   1.00000     0.00000
 Structure written by MMmdl.
 50 51  0  0  0  0  0  0  0  0  1 V2000
  147.9817  141.3159  153.8026 C   0  0  0  0  0  0  0  0  0  0  0  0
  147.9663  140.1505  154.8064 C   0  0  0  0  0  0  0  0  0  0  0  0
  149.1302  140.1541  155.8527 C   0  0  1  0  0  0  0  0  0  0  0  0
  150.4468  139.9941  155.0470 C   0  0  0  0  0  0  0  0  0  0  0  0
  149.1724  141.5528  156.5509 C   0  0  0  0  0  0  0  0  0  0  0  0
  150.4989  141.8993  157.0429 N   0  0  0  0  0  0  0  0  0  0  0  0
  150.7882  142.5095  158.2016 C   0  0  0  0  0  0  0  0  0  0  0  0
  149.9265  142.8723  159.0008 O   0  0  0  0  0  0  0  0  0  0  0  0
  152.2735  142.7571  158.5219 C   0  0  0  0  0  0  0  0  0  0  0  0
  152.5917  142.7467  159.9597 N   0  0  0  0  0  0  0  0  0  0  0  0
  152.1070  143.7575  160.7703 C   0  0  0  0  0  0  0  0  0  0  0  0
  152.3989  143.8632  162.0847 C   0  0  0  0  0  0  0  0  0  0  0  0
  153.2654  142.8901  162.7372 C   0  0  0  0  0  0  0  0  0  0  0  0
  153.5777  142.9508  163.9271 O   0  0  0  0  0  0  0  0  0  0  0  0
  153.7362  141.8598  161.8920 N   0  0  0  0  0  0  0  0  0  0  0  0
  154.6139  140.8803  162.4983 C   0  0  0  0  0  0  0  0  0  0  0  0
  153.4291  141.7534  160.5156 C   0  0  0  0  0  0  0  0  0  0  0  0
  153.8796  140.8522  159.8050 O   0  0  0  0  0  0  0  0  0  0  0  0
  148.9514  139.0711  156.8655 N   0  0  0  0  0  0  0  0  0  0  0  0
  149.9600  139.0374  157.9339 C   0  0  0  0  0  0  0  0  0  0  0  0
  149.7838  137.8258  158.8645 C   0  0  0  0  0  0  0  0  0  0  0  0
  148.4757  137.8347  159.4202 O   0  0  0  0  0  0  0  0  0  0  0  0
  147.4666  137.7975  158.4194 C   0  0  0  0  0  0  0  0  0  0  0  0
  147.6189  139.0071  157.4814 C   0  0  0  0  0  0  0  0  0  0  0  0
  147.1131  141.2658  153.1462 H   0  0  0  0  0  0  0  0  0  0  0  0
  148.8676  141.2910  153.1684 H   0  0  0  0  0  0  0  0  0  0  0  0
  147.9556  142.2815  154.3072 H   0  0  0  0  0  0  0  0  0  0  0  0
  147.0001  140.1321  155.3087 H   0  0  0  0  0  0  0  0  0  0  0  0
  147.9620  139.2189  154.2394 H   0  0  0  0  0  0  0  0  0  0  0  0
  150.5547  140.7769  154.2953 H   0  0  0  0  0  0  0  0  0  0  0  0
  150.4882  139.0476  154.5094 H   0  0  0  0  0  0  0  0  0  0  0  0
  151.3282  140.0516  155.6848 H   0  0  0  0  0  0  0  0  0  0  0  0
  148.8404  142.3358  155.8678 H   0  0  0  0  0  0  0  0  0  0  0  0
  148.4956  141.5757  157.4056 H   0  0  0  0  0  0  0  0  0  0  0  0
  151.2741  141.6398  156.4505 H   0  0  0  0  0  0  0  0  0  0  0  0
  152.8609  141.9921  158.0121 H   0  0  0  0  0  0  0  0  0  0  0  0
  152.5773  143.7040  158.0726 H   0  0  0  0  0  0  0  0  0  0  0  0
  151.4682  144.5094  160.3294 H   0  0  0  0  0  0  0  0  0  0  0  0
  151.9916  144.6819  162.6598 H   0  0  0  0  0  0  0  0  0  0  0  0
  154.8302  140.0623  161.8118 H   0  0  0  0  0  0  0  0  0  0  0  0
  154.1054  140.4827  163.3787 H   0  0  0  0  0  0  0  0  0  0  0  0
  155.5336  141.4011  162.7705 H   0  0  0  0  0  0  0  0  0  0  0  0
  150.9658  138.9814  157.5237 H   0  0  0  0  0  0  0  0  0  0  0  0
  149.9096  139.9475  158.5317 H   0  0  0  0  0  0  0  0  0  0  0  0
  149.9518  136.8944  158.3217 H   0  0  0  0  0  0  0  0  0  0  0  0
  150.5141  137.8609  159.6729 H   0  0  0  0  0  0  0  0  0  0  0  0
  147.5338  136.8638  157.8587 H   0  0  0  0  0  0  0  0  0  0  0  0
  146.4883  137.8123  158.9000 H   0  0  0  0  0  0  0  0  0  0  0  0
  147.4197  139.9174  158.0467 H   0  0  0  0  0  0  0  0  0  0  0  0
  146.8408  138.9254  156.7255 H   0  0  0  0  0  0  0  0  0  0  0  0
  1  2  1  0  0  0  0
  1 25  1  0  0  0  0
  1 26  1  0  0  0  0
  1 27  1  0  0  0  0
  2  3  1  0  0  0  0
  2 28  1  0  0  0  0
  2 29  1  0  0  0  0
  3  4  1  0  0  0  0
  3  5  1  0  0  0  0
  3 19  1  0  0  0  0
  4 30  1  0  0  0  0
  4 31  1  0  0  0  0
  4 32  1  0  0  0  0
  5  6  1  0  0  0  0
  5 33  1  0  0  0  0
  5 34  1  0  0  0  0
  6  7  1  0  0  0  0
  6 35  1  0  0  0  0
  7  8  2  0  0  0  0
  7  9  1  0  0  0  0
  9 10  1  0  0  0  0
  9 36  1  0  0  0  0
  9 37  1  0  0  0  0
 10 17  1  0  0  0  0
 10 11  1  0  0  0  0
 11 12  2  0  0  0  0
 11 38  1  0  0  0  0
 12 13  1  0  0  0  0
 12 39  1  0  0  0  0
 13 14  2  0  0  0  0
 13 15  1  0  0  0  0
 15 16  1  0  0  0  0
 15 17  1  0  0  0  0
 16 40  1  0  0  0  0
 16 41  1  0  0  0  0
 16 42  1  0  0  0  0
 17 18  2  0  0  0  0
 19 24  1  0  0  0  0
 19 20  1  0  0  0  0
 20 21  1  0  0  0  0
 20 43  1  0  0  0  0
 20 44  1  0  0  0  0
 21 22  1  0  0  0  0
 21 45  1  0  0  0  0
 21 46  1  0  0  0  0
 22 23  1  0  0  0  0
 23 24  1  0  0  0  0
 23 47  1  0  0  0  0
 23 48  1  0  0  0  0
 24 49  1  0  0  0  0
 24 50  1  0  0  0  0
M  END
> <s_m_source_file>
AV-unprocessed.smi

> <i_m_source_file_index>
1985

> <i_lp_mmshare_version>
43012

> <i_f3d_flags>
0

> <s_epik_input>
W0NIMl0xW0NIMl1PW0NIMl1bQ0gyXU4xW0NAQF0oW0NIM10pKFtDSDJdW0NIM10pW0NIMl1bTkhdQyg9TylbQ0gyXW4yW2NIXVtjSF1jKD1PKW4oW0NIM10pYzI9Tw==

> <s_epik_cmdline>
J2VwaWtfcHl0aG9uJywgJy1waCcsICc3LjAnLCAnLXRuJywgJzgnLCAnLW1hJywgJzIwMCcsICctbWV0YWxfYmluZGluZycsICctaW1hZScsICc8aW5maWxlLm1hZT4nLCAnLW9tYWUnLCAnPG91dGZpbGUubWFlPic=

> <r_lp_tautomer_probability>
1

> <r_epik_Ionization_Penalty>
0.318667

> <r_epik_Ionization_Penalty_Charging>
1.17294e-08

> <r_epik_Ionization_Penalty_Neutral>
0.318667

> <r_epik_State_Penalty>
0.313095

> <r_epik_Charging_Adjusted_Penalty>
0.313095

> <i_epik_Tot_Q>
0

> <i_epik_Tot_abs_Q>
0

> <r_epik_Metal_State_Penalty>
0.313065

> <b_epik_Metal_Only>
0

> <s_lp_Force_Field>
OPLS_2005

> <r_lp_Energy>
50.9195

> <b_lp_Chiralities_Consistent>
1

> <s_lp_Variant>
AV-unprocessed.smi:1985-1

> <Gold.Version>
5.8.1

> <Gold.Id.Protein>
6NUR|6NUR_protein|mol2

> <Gold.PLP.Fitness>
44.4771

> <Gold.PLP.PLP>
-46.2016

> <Gold.PLP.part.hbond>
-3.1037

> <Gold.PLP.part.metal>
0.0000

> <Gold.PLP.part.buried>
-4.7737

> <Gold.PLP.part.nonpolar>
-38.5264

> <Gold.PLP.part.repulsive>
0.2222

> <Gold.PLP.ligand.clash>
0.0000

> <Gold.PLP.ligand.torsion>
1.0884

> <Gold.PLP.Chemscore.Hbond>
0.0597

> <Gold.PLP.Chemscore.CHOScore>
0.0000

> <Gold.PLP.Chemscore.Metal>
0.0000

> <Gold.Chemscore.Hbonds>
donor molecule, donor type, donor heavy atom, donor atom, acceptor molecule, acceptor atom, score
      P1  H  6934  6947       L1    22  0.07

> <Gold.PLP.Chemscore.Internal.Correction>
0.2734

> <Gold.Rescore>
     Score         DG    S(hbond)    S(metal)    S(lipo)     H(rot)  DE(clash)    DE(int)     intcor
      8.18     -10.47       0.56        0.00      74.83       2.20       0.08       2.20       ----

> <Gold.Chemscore.Fitness>
8.1850

> <Gold.Chemscore.DG>
-10.4696

> <Gold.Chemscore.ZeroCoef>
-5.4800

> <Gold.Chemscore.Hbond>
0.5550

> <Gold.Chemscore.Metal>
0.0000

> <Gold.Chemscore.Lipo>
74.8324

> <Gold.Chemscore.Internal_Hbond>
0.0000

> <Gold.Chemscore.DEClash>
0.0806

> <Gold.Chemscore.DEInternal>
2.2039

> <Gold.Chemscore.Rot>
2.1952

> <Gold.Chemscore.Internal.Correction>
   9.000000E+99

> <Gold.Chemscore.Hbonds>
donor molecule, donor type, donor heavy atom, donor atom, acceptor molecule, acceptor atom, score
      P1  H  6934  6947       L1    22  0.01

> <Gold.Chemscore.Hbond.Weighted>
-1.8538

> <Gold.Chemscore.Metal.Weighted>
-0.0000

> <Gold.Chemscore.Lipo.Weighted>
-8.7554

> <Gold.Chemscore.Internal_Hbond.Weighted>
0.0000

> <Gold.Chemscore.DEClash.Weighted>
0.0806

> <Gold.Chemscore.DEInternal.Weighted>
2.2039

> <Gold.Chemscore.Rot.Weighted>
5.6197

> <Gold.Chemscore.Internal.Correction.Weighted>
   9.000000E+99

> <Gold.Protein.RotatedTorsions>
[ 6907 6896 6895 6894 ] final -123.60 input  -60.11 | X-H torsion
[ 7974 7965 7964 7962 ] final  104.31 input  175.53 | X-H torsion
[ 8008 7997 7996 7995 ] final  144.38 input   59.86 | X-H torsion
[ 10167 10162 10161 10158 ] final  -75.26 input  -65.29 | X-H torsion
[ 10718 10713 10712 10709 ] final    5.30 input   66.30 | X-H torsion
[ 10763 10752 10751 10750 ] final   76.04 input  -60.55 | X-H torsion
[ 11005 11000 10999 10996 ] final -172.39 input  -57.11 | X-H torsion

> <Gold.Protein.ActiveResidues>
 VAL166  LYS551  ARG553  GLY616  TRP617  ASP618  TYR619  PRO620  LYS621  CYS622 
 ASP623  PHE694  ASN695  SER759  ASP760  ASP761  ALA762  ILE779  LEU786  VAL792 
 PHE793  MET794  SER795  GLU796  ALA797  LYS798  CYS799  TRP800  GLU811  SER814 

> <Gold.Protein.RotatedAtoms>
  150.8686  133.7538  159.2968 H   0  0  0  0  0  0  0  0  0  0  0  0  # atno 6907 bound_to 6896
  151.5157  135.1064  159.9875 H   0  0  0  0  0  0  0  0  0  0  0  0  # atno 6908 bound_to 6896
  152.4679  133.7919  159.6962 H   0  0  0  0  0  0  0  0  0  0  0  0  # atno 6909 bound_to 6896
  145.3345  139.2478  143.3643 H   0  0  0  0  0  0  0  0  0  0  0  0  # atno 7974 bound_to 7965
  156.2909  140.2237  156.5044 H   0  0  0  0  0  0  0  0  0  0  0  0  # atno 8008 bound_to 7997
  154.7662  140.0470  157.1036 H   0  0  0  0  0  0  0  0  0  0  0  0  # atno 8009 bound_to 7997
  154.9929  140.3092  155.4902 H   0  0  0  0  0  0  0  0  0  0  0  0  # atno 8010 bound_to 7997
  140.4957  143.2371  151.7834 H   0  0  0  0  0  0  0  0  0  0  0  0  # atno 10167 bound_to 10162
  156.9054  130.5737  149.5647 H   0  0  0  0  0  0  0  0  0  0  0  0  # atno 10718 bound_to 10713
  153.0697  135.4966  154.8278 H   0  0  0  0  0  0  0  0  0  0  0  0  # atno 10763 bound_to 10752
  154.7005  135.3001  154.9350 H   0  0  0  0  0  0  0  0  0  0  0  0  # atno 10764 bound_to 10752
  154.0076  135.6758  153.4816 H   0  0  0  0  0  0  0  0  0  0  0  0  # atno 10765 bound_to 10752
  140.4975  134.5925  157.4976 H   0  0  0  0  0  0  0  0  0  0  0  0  # atno 11005 bound_to 11000
  146.3032  140.3929  142.8696 LP  0  0  0  0  0  0  0  0  0  0  0  0  # atno 17320 bound_to 7965
  144.8838  140.7436  143.5969 LP  0  0  0  0  0  0  0  0  0  0  0  0  # atno 17321 bound_to 7965
  139.4861  144.4590  151.9564 LP  0  0  0  0  0  0  0  0  0  0  0  0  # atno 17342 bound_to 10162
  140.3677  144.2894  150.5924 LP  0  0  0  0  0  0  0  0  0  0  0  0  # atno 17343 bound_to 10162
  156.0561  130.5622  150.9095 LP  0  0  0  0  0  0  0  0  0  0  0  0  # atno 17370 bound_to 10713
  157.6000  131.0941  150.8976 LP  0  0  0  0  0  0  0  0  0  0  0  0  # atno 17371 bound_to 10713
  139.9733  134.7257  155.9999 LP  0  0  0  0  0  0  0  0  0  0  0  0  # atno 17394 bound_to 11000
  141.1453  133.6557  156.3848 LP  0  0  0  0  0  0  0  0  0  0  0  0  # atno 17395 bound_to 11000

$$$$
