AV-unprocessed.smi:3263|AV-procd|sdf|12492|dock4
  -GOLD-   2272018393D 1   1.00000     0.00000
 Structure written by MMmdl.
 42 44  0  0  0  0  0  0  0  0  2 V2000
  146.2895  135.8749  153.0886 O   0  0  0  0  0  0  0  0  0  0  0  0
  145.4115  136.2881  152.3309 C   0  0  0  0  0  0  0  0  0  0  0  0
  144.1982  135.4133  151.9976 C   0  0  0  0  0  0  0  0  0  0  0  0
  144.5122  134.2859  150.9883 C   0  0  2  0  0  0  0  0  0  0  0  0
  143.5406  133.0823  151.0568 C   0  0  0  0  0  0  0  0  0  0  0  0
  144.4834  131.8836  151.2654 C   0  0  1  0  0  0  0  0  0  0  0  0
  145.3011  131.6403  149.9833 C   0  0  0  0  0  0  0  0  0  0  0  0
  146.2912  132.8205  149.9838 C   0  0  0  0  0  0  0  0  0  0  0  0
  145.8788  133.6082  151.2421 C   0  0  2  0  0  0  0  0  0  0  0  0
  145.5279  132.4754  152.2024 C   0  0  0  0  0  0  0  0  0  0  0  0
  145.4463  137.5015  151.7593 N   0  0  0  0  0  0  0  0  0  0  0  0
  146.5130  138.4792  151.9371 C   0  0  0  0  0  0  0  0  0  0  0  0
  146.5970  138.9676  153.3928 C   0  0  0  0  0  0  0  0  0  0  0  0
  148.0033  139.3843  153.7770 C   0  0  0  0  0  0  0  0  0  0  0  0
  148.2798  140.6364  154.3674 C   0  0  0  0  0  0  0  0  0  0  0  0
  149.6101  140.9588  154.7082 C   0  0  0  0  0  0  0  0  0  0  0  0
  150.6344  140.0237  154.4523 C   0  0  0  0  0  0  0  0  0  0  0  0
  150.3018  138.7878  153.8609 C   0  0  0  0  0  0  0  0  0  0  0  0
  149.0154  138.5159  153.5490 N   0  3  0  0  0  0  0  0  0  0  0  0
  143.8389  134.9767  152.9302 H   0  0  0  0  0  0  0  0  0  0  0  0
  143.3881  136.0401  151.6221 H   0  0  0  0  0  0  0  0  0  0  0  0
  144.5054  134.7118  149.9836 H   0  0  0  0  0  0  0  0  0  0  0  0
  142.8568  133.1687  151.9024 H   0  0  0  0  0  0  0  0  0  0  0  0
  142.9371  132.9848  150.1537 H   0  0  0  0  0  0  0  0  0  0  0  0
  143.9800  130.9919  151.6398 H   0  0  0  0  0  0  0  0  0  0  0  0
  145.8361  130.6911  150.0352 H   0  0  0  0  0  0  0  0  0  0  0  0
  144.6734  131.6245  149.0916 H   0  0  0  0  0  0  0  0  0  0  0  0
  147.3160  132.4586  150.0748 H   0  0  0  0  0  0  0  0  0  0  0  0
  146.2297  133.4191  149.0743 H   0  0  0  0  0  0  0  0  0  0  0  0
  146.6531  134.2894  151.5960 H   0  0  0  0  0  0  0  0  0  0  0  0
  145.1140  132.8166  153.1526 H   0  0  0  0  0  0  0  0  0  0  0  0
  146.3633  131.8013  152.4003 H   0  0  0  0  0  0  0  0  0  0  0  0
  144.6837  137.7604  151.1499 H   0  0  0  0  0  0  0  0  0  0  0  0
  147.4665  138.0521  151.6215 H   0  0  0  0  0  0  0  0  0  0  0  0
  146.3144  139.3193  151.2712 H   0  0  0  0  0  0  0  0  0  0  0  0
  145.9230  139.8117  153.5451 H   0  0  0  0  0  0  0  0  0  0  0  0
  146.2639  138.1830  154.0735 H   0  0  0  0  0  0  0  0  0  0  0  0
  147.4840  141.3415  154.5598 H   0  0  0  0  0  0  0  0  0  0  0  0
  149.8416  141.9115  155.1615 H   0  0  0  0  0  0  0  0  0  0  0  0
  151.6594  140.2509  154.7070 H   0  0  0  0  0  0  0  0  0  0  0  0
  151.0199  138.0143  153.6306 H   0  0  0  0  0  0  0  0  0  0  0  0
  148.7978  137.6146  153.1233 H   0  0  0  0  0  0  0  0  0  0  0  0
  1  2  2  0  0  0  0
  2  3  1  0  0  0  0
  2 11  1  0  0  0  0
  3  4  1  0  0  0  0
  3 20  1  0  0  0  0
  3 21  1  0  0  0  0
  4  9  1  0  0  0  0
  4  5  1  0  0  0  0
  4 22  1  0  0  0  0
  5  6  1  0  0  0  0
  5 23  1  0  0  0  0
  5 24  1  0  0  0  0
  6 10  1  0  0  0  0
  6  7  1  0  0  0  0
  6 25  1  0  0  0  0
  7  8  1  0  0  0  0
  7 26  1  0  0  0  0
  7 27  1  0  0  0  0
  8  9  1  0  0  0  0
  8 28  1  0  0  0  0
  8 29  1  0  0  0  0
  9 10  1  0  0  0  0
  9 30  1  0  0  0  0
 10 31  1  0  0  0  0
 10 32  1  0  0  0  0
 11 12  1  0  0  0  0
 11 33  1  0  0  0  0
 12 13  1  0  0  0  0
 12 34  1  0  0  0  0
 12 35  1  0  0  0  0
 13 14  1  0  0  0  0
 13 36  1  0  0  0  0
 13 37  1  0  0  0  0
 14 19  1  0  0  0  0
 14 15  2  0  0  0  0
 15 16  1  0  0  0  0
 15 38  1  0  0  0  0
 16 17  2  0  0  0  0
 16 39  1  0  0  0  0
 17 18  1  0  0  0  0
 17 40  1  0  0  0  0
 18 19  2  0  0  0  0
 18 41  1  0  0  0  0
 19 42  1  0  0  0  0
M  CHG  1  19   1
M  END
> <s_m_source_file>
AV-unprocessed.smi

> <i_m_source_file_index>
3263

> <i_lp_mmshare_version>
43012

> <i_f3d_flags>
0

> <s_epik_input>
W0NIMl0xW0NIMl1bQ0BASF0oW0NIMl0yKVtDQEBIXShbQ0gyXVtDQEhdMTIpW0NIMl1DKD1PKVtOSF1bQ0gyXVtDSDJdYzNbY0hdW2NIXVtjSF1bY0hdbjM=

> <s_epik_cmdline>
J2VwaWtfcHl0aG9uJywgJy1waCcsICc3LjAnLCAnLXRuJywgJzgnLCAnLW1hJywgJzIwMCcsICctbWV0YWxfYmluZGluZycsICctaW1hZScsICc8aW5maWxlLm1hZT4nLCAnLW9tYWUnLCAnPG91dGZpbGUubWFlPic=

> <r_epik_Ionization_Penalty>
1.83579

> <r_epik_Ionization_Penalty_Charging>
1.83579

> <r_epik_Ionization_Penalty_Neutral>
2.47288e-08

> <r_epik_State_Penalty>
1.95213

> <r_epik_Charging_Adjusted_Penalty>
3.78793

> <i_epik_Tot_Q>
1

> <i_epik_Tot_abs_Q>
1

> <r_epik_Metal_State_Penalty>
1.97847

> <b_epik_Metal_Only>
0

> <s_lp_Force_Field>
OPLS_2005

> <r_lp_Energy>
51.8999

> <b_lp_Chiralities_Consistent>
1

> <s_lp_Variant>
AV-unprocessed.smi:3263-7

> <Gold.Version>
5.8.1

> <Gold.Id.Protein>
6NUR|6NUR_protein|mol2

> <Gold.PLP.Fitness>
46.4380

> <Gold.PLP.PLP>
-38.8016

> <Gold.PLP.part.hbond>
-2.9712

> <Gold.PLP.part.metal>
0.0000

> <Gold.PLP.part.buried>
-1.8285

> <Gold.PLP.part.nonpolar>
-35.4355

> <Gold.PLP.part.repulsive>
0.5210

> <Gold.PLP.ligand.clash>
0.0000

> <Gold.PLP.ligand.torsion>
0.6736

> <Gold.PLP.Chemscore.Hbond>
2.9840

> <Gold.PLP.Chemscore.CHOScore>
0.0000

> <Gold.PLP.Chemscore.Metal>
0.0000

> <Gold.Chemscore.Hbonds>
donor molecule, donor type, donor heavy atom, donor atom, acceptor molecule, acceptor atom, score
      L1  H    11    33       P1 10171  1.00
      L1  H    19    42       P1  7948  2.00

> <Gold.PLP.Chemscore.Internal.Correction>
0.0317

> <Gold.Rescore>
     Score         DG    S(hbond)    S(metal)    S(lipo)     H(rot)  DE(clash)    DE(int)     intcor
     17.86     -20.07       1.96        0.00     103.00       1.56       0.36       1.85       ----

> <Gold.Chemscore.Fitness>
17.8634

> <Gold.Chemscore.DG>
-20.0714

> <Gold.Chemscore.ZeroCoef>
-5.4800

> <Gold.Chemscore.Hbond>
1.9592

> <Gold.Chemscore.Metal>
0.0000

> <Gold.Chemscore.Lipo>
103.0028

> <Gold.Chemscore.Internal_Hbond>
0.0000

> <Gold.Chemscore.DEClash>
0.3620

> <Gold.Chemscore.DEInternal>
1.8460

> <Gold.Chemscore.Rot>
1.5640

> <Gold.Chemscore.Internal.Correction>
   9.000000E+99

> <Gold.Chemscore.Hbonds>
donor molecule, donor type, donor heavy atom, donor atom, acceptor molecule, acceptor atom, score
      L1  H    11    33       P1 10171  0.99
      L1  H    19    42       P1  7948  0.98

> <Gold.Chemscore.Hbond.Weighted>
-6.5438

> <Gold.Chemscore.Metal.Weighted>
-0.0000

> <Gold.Chemscore.Lipo.Weighted>
-12.0513

> <Gold.Chemscore.Internal_Hbond.Weighted>
0.0000

> <Gold.Chemscore.DEClash.Weighted>
0.3620

> <Gold.Chemscore.DEInternal.Weighted>
1.8460

> <Gold.Chemscore.Rot.Weighted>
4.0038

> <Gold.Chemscore.Internal.Correction.Weighted>
   9.000000E+99

> <Gold.Protein.RotatedTorsions>
[ 6907 6896 6895 6894 ] final -160.74 input  -60.11 | X-H torsion
[ 7974 7965 7964 7962 ] final  -91.54 input  175.53 | X-H torsion
[ 8008 7997 7996 7995 ] final  -15.72 input   59.86 | X-H torsion
[ 10167 10162 10161 10158 ] final  -10.07 input  -65.29 | X-H torsion
[ 10718 10713 10712 10709 ] final  148.88 input   66.30 | X-H torsion
[ 10763 10752 10751 10750 ] final  -91.59 input  -60.55 | X-H torsion
[ 11005 11000 10999 10996 ] final  105.69 input  -57.11 | X-H torsion

> <Gold.Protein.ActiveResidues>
 VAL166  LYS551  ARG553  GLY616  TRP617  ASP618  TYR619  PRO620  LYS621  CYS622 
 ASP623  PHE694  ASN695  SER759  ASP760  ASP761  ALA762  ILE779  LEU786  VAL792 
 PHE793  MET794  SER795  GLU796  ALA797  LYS798  CYS799  TRP800  GLU811  SER814 

> <Gold.Protein.RotatedAtoms>
  151.3538  133.3915  159.2682 H   0  0  0  0  0  0  0  0  0  0  0  0  # atno 6907 bound_to 6896
  150.9780  134.9142  159.7838 H   0  0  0  0  0  0  0  0  0  0  0  0  # atno 6908 bound_to 6896
  152.5207  134.3501  159.9300 H   0  0  0  0  0  0  0  0  0  0  0  0  # atno 6909 bound_to 6896
  145.4117  140.9545  143.2230 H   0  0  0  0  0  0  0  0  0  0  0  0  # atno 7974 bound_to 7965
  154.5108  140.2188  155.9160 H   0  0  0  0  0  0  0  0  0  0  0  0  # atno 8008 bound_to 7997
  156.1550  140.3154  155.8676 H   0  0  0  0  0  0  0  0  0  0  0  0  # atno 8009 bound_to 7997
  155.3865  140.0475  157.3033 H   0  0  0  0  0  0  0  0  0  0  0  0  # atno 8010 bound_to 7997
  140.7104  143.5788  150.9014 H   0  0  0  0  0  0  0  0  0  0  0  0  # atno 10167 bound_to 10162
  157.3031  131.0874  151.1375 H   0  0  0  0  0  0  0  0  0  0  0  0  # atno 10718 bound_to 10713
  154.6776  135.5262  153.8220 H   0  0  0  0  0  0  0  0  0  0  0  0  # atno 10763 bound_to 10752
  153.0542  135.6544  154.0627 H   0  0  0  0  0  0  0  0  0  0  0  0  # atno 10764 bound_to 10752
  154.0518  135.2968  155.3319 H   0  0  0  0  0  0  0  0  0  0  0  0  # atno 10765 bound_to 10752
  139.8805  134.9344  156.5553 H   0  0  0  0  0  0  0  0  0  0  0  0  # atno 11005 bound_to 11000
  144.8304  139.5638  143.6946 LP  0  0  0  0  0  0  0  0  0  0  0  0  # atno 17320 bound_to 7965
  146.2701  139.6615  142.9302 LP  0  0  0  0  0  0  0  0  0  0  0  0  # atno 17321 bound_to 7965
  139.9514  143.6268  152.3028 LP  0  0  0  0  0  0  0  0  0  0  0  0  # atno 17342 bound_to 10162
  139.6788  144.7657  151.1647 LP  0  0  0  0  0  0  0  0  0  0  0  0  # atno 17343 bound_to 10162
  157.2726  130.6712  149.6027 LP  0  0  0  0  0  0  0  0  0  0  0  0  # atno 17370 bound_to 10713
  155.9673  130.4474  150.5579 LP  0  0  0  0  0  0  0  0  0  0  0  0  # atno 17371 bound_to 10713
  140.8210  133.8354  155.8895 LP  0  0  0  0  0  0  0  0  0  0  0  0  # atno 17394 bound_to 11000
  140.9418  134.1891  157.4792 LP  0  0  0  0  0  0  0  0  0  0  0  0  # atno 17395 bound_to 11000

$$$$
