AV-unprocessed.smi:1200|AV-procd|sdf|5024|dock1
  -GOLD-   22720 4 43D 1   1.00000     0.00000
 Structure written by MMmdl.
 43 44  0  0  0  0  0  0  0  0  2 V2000
  141.4659  139.5751  155.1873 C   0  0  0  0  0  0  0  0  0  0  0  0
  142.4329  140.6105  154.8549 N   0  0  0  0  0  0  0  0  0  0  0  0
  142.9095  141.5049  155.7319 C   0  0  0  0  0  0  0  0  0  0  0  0
  142.5666  141.5397  156.9142 O   0  0  0  0  0  0  0  0  0  0  0  0
  143.9125  142.5247  155.1828 C   0  0  0  0  0  0  0  0  0  0  0  0
  145.1357  141.8929  154.6247 N   0  3  2  0  0  0  0  0  0  0  0  0
  145.9092  141.1481  155.6504 C   0  0  0  0  0  0  0  0  0  0  0  0
  147.0815  140.3788  155.0142 C   0  0  0  0  0  0  0  0  0  0  0  0
  148.0032  141.2988  154.1947 C   0  0  2  0  0  0  0  0  0  0  0  0
  148.7901  142.1571  155.0801 N   0  0  0  0  0  0  0  0  0  0  0  0
  149.7042  141.7276  155.9623 C   0  0  0  0  0  0  0  0  0  0  0  0
  150.0068  140.5428  156.1008 O   0  0  0  0  0  0  0  0  0  0  0  0
  150.2430  142.7541  156.6422 N   0  0  0  0  0  0  0  0  0  0  0  0
  151.2106  142.7176  157.6829 C   0  0  0  0  0  0  0  0  0  0  0  0
  151.8873  143.8562  158.1849 C   0  0  0  0  0  0  0  0  0  0  0  0
  152.8415  143.6843  159.2061 C   0  0  0  0  0  0  0  0  0  0  0  0
  153.0901  142.3827  159.6830 C   0  0  0  0  0  0  0  0  0  0  0  0
  152.4624  141.2874  159.2054 N   0  0  0  0  0  0  0  0  0  0  0  0
  151.5495  141.4599  158.2260 C   0  0  0  0  0  0  0  0  0  0  0  0
  147.1662  142.1191  153.1928 C   0  0  0  0  0  0  0  0  0  0  0  0
  145.9974  142.8480  153.8781 C   0  0  0  0  0  0  0  0  0  0  0  0
  141.2575  138.9640  154.3091 H   0  0  0  0  0  0  0  0  0  0  0  0
  140.5272  140.0155  155.5261 H   0  0  0  0  0  0  0  0  0  0  0  0
  141.8477  138.9224  155.9734 H   0  0  0  0  0  0  0  0  0  0  0  0
  142.7547  140.6501  153.8984 H   0  0  0  0  0  0  0  0  0  0  0  0
  143.4420  143.1603  154.4306 H   0  0  0  0  0  0  0  0  0  0  0  0
  144.1819  143.1739  156.0171 H   0  0  0  0  0  0  0  0  0  0  0  0
  146.2741  141.8431  156.4084 H   0  0  0  0  0  0  0  0  0  0  0  0
  145.2559  140.4391  156.1604 H   0  0  0  0  0  0  0  0  0  0  0  0
  147.6523  139.8593  155.7850 H   0  0  0  0  0  0  0  0  0  0  0  0
  146.6814  139.6027  154.3605 H   0  0  0  0  0  0  0  0  0  0  0  0
  148.6976  140.6673  153.6372 H   0  0  0  0  0  0  0  0  0  0  0  0
  148.6076  143.1490  155.0359 H   0  0  0  0  0  0  0  0  0  0  0  0
  149.9543  143.6781  156.3561 H   0  0  0  0  0  0  0  0  0  0  0  0
  151.7080  144.8487  157.8019 H   0  0  0  0  0  0  0  0  0  0  0  0
  153.3749  144.5316  159.6110 H   0  0  0  0  0  0  0  0  0  0  0  0
  153.8170  142.2163  160.4642 H   0  0  0  0  0  0  0  0  0  0  0  0
  151.0707  140.5607  157.8662 H   0  0  0  0  0  0  0  0  0  0  0  0
  147.7936  142.8352  152.6608 H   0  0  0  0  0  0  0  0  0  0  0  0
  146.7662  141.4486  152.4309 H   0  0  0  0  0  0  0  0  0  0  0  0
  145.4115  143.3693  153.1207 H   0  0  0  0  0  0  0  0  0  0  0  0
  146.3757  143.6112  154.5600 H   0  0  0  0  0  0  0  0  0  0  0  0
  144.8131  141.2051  153.9581 H   0  0  0  0  0  0  0  0  0  0  0  0
  1  2  1  0  0  0  0
  1 22  1  0  0  0  0
  1 23  1  0  0  0  0
  1 24  1  0  0  0  0
  2  3  1  0  0  0  0
  2 25  1  0  0  0  0
  3  4  2  0  0  0  0
  3  5  1  0  0  0  0
  5  6  1  0  0  0  0
  5 26  1  0  0  0  0
  5 27  1  0  0  0  0
  6 21  1  0  0  0  0
  6  7  1  0  0  0  0
  6 43  1  0  0  0  0
  7  8  1  0  0  0  0
  7 28  1  0  0  0  0
  7 29  1  0  0  0  0
  8  9  1  0  0  0  0
  8 30  1  0  0  0  0
  8 31  1  0  0  0  0
  9 10  1  0  0  0  0
  9 20  1  0  0  0  0
  9 32  1  0  0  0  0
 10 11  1  0  0  0  0
 10 33  1  0  0  0  0
 11 12  2  0  0  0  0
 11 13  1  0  0  0  0
 13 14  1  0  0  0  0
 13 34  1  0  0  0  0
 14 19  1  0  0  0  0
 14 15  2  0  0  0  0
 15 16  1  0  0  0  0
 15 35  1  0  0  0  0
 16 17  2  0  0  0  0
 16 36  1  0  0  0  0
 17 18  1  0  0  0  0
 17 37  1  0  0  0  0
 18 19  2  0  0  0  0
 19 38  1  0  0  0  0
 20 21  1  0  0  0  0
 20 39  1  0  0  0  0
 20 40  1  0  0  0  0
 21 41  1  0  0  0  0
 21 42  1  0  0  0  0
M  CHG  1   6   1
M  END
> <s_m_source_file>
AV-unprocessed.smi

> <i_m_source_file_index>
1200

> <i_lp_mmshare_version>
43012

> <i_f3d_flags>
0

> <s_epik_input>
W0NIM11bTkhdQyg9TylbQ0gyXU4xW0NIMl1bQ0gyXVtDSF0oW0NIMl1bQ0gyXTEpW05IXUMoPU8pW05IXWMyW2NIXVtjSF1bY0hdbltjSF0y

> <s_epik_cmdline>
J2VwaWtfcHl0aG9uJywgJy1waCcsICc3LjAnLCAnLXRuJywgJzgnLCAnLW1hJywgJzIwMCcsICctbWV0YWxfYmluZGluZycsICctaW1hZScsICc8aW5maWxlLm1hZT4nLCAnLW9tYWUnLCAnPG91dGZpbGUubWFlPic=

> <r_epik_Ionization_Penalty>
0.842849

> <r_epik_Ionization_Penalty_Charging>
0.838844

> <r_epik_Ionization_Penalty_Neutral>
0.00400543

> <r_epik_State_Penalty>
0.858736

> <r_epik_Charging_Adjusted_Penalty>
1.69758

> <i_epik_Tot_Q>
1

> <i_epik_Tot_abs_Q>
1

> <r_epik_Metal_State_Penalty>
0.860766

> <b_epik_Metal_Only>
0

> <s_lp_Force_Field>
OPLS_2005

> <r_lp_Energy>
17.1685

> <b_lp_Chiralities_Consistent>
1

> <s_lp_Variant>
AV-unprocessed.smi:1200-3

> <Gold.Version>
5.8.1

> <Gold.Id.Protein>
6NUR|6NUR_protein|mol2

> <Gold.PLP.Fitness>
48.9947

> <Gold.PLP.PLP>
-34.1349

> <Gold.PLP.part.hbond>
-4.0000

> <Gold.PLP.part.metal>
0.0000

> <Gold.PLP.part.buried>
-6.0614

> <Gold.PLP.part.nonpolar>
-25.1641

> <Gold.PLP.part.repulsive>
0.3020

> <Gold.PLP.ligand.clash>
0.0000

> <Gold.PLP.ligand.torsion>
0.0820

> <Gold.PLP.Chemscore.Hbond>
5.0000

> <Gold.PLP.Chemscore.CHOScore>
0.0000

> <Gold.PLP.Chemscore.Metal>
0.0000

> <Gold.Chemscore.Hbonds>
donor molecule, donor type, donor heavy atom, donor atom, acceptor molecule, acceptor atom, score
      L1  H     2    25       P1 10175  1.00
      L1  H     6    43       P1 10175  2.00
      L1  H    10    33       P1  8028  1.00
      L1  H    13    34       P1  8028  1.00

> <Gold.PLP.Chemscore.Internal.Correction>
0.0238

> <Gold.Rescore>
     Score         DG    S(hbond)    S(metal)    S(lipo)     H(rot)  DE(clash)    DE(int)     intcor
     20.82     -23.79       3.74        0.00      86.62       1.69       1.48       1.48       ----

> <Gold.Chemscore.Fitness>
20.8221

> <Gold.Chemscore.DG>
-23.7858

> <Gold.Chemscore.ZeroCoef>
-5.4800

> <Gold.Chemscore.Hbond>
3.7398

> <Gold.Chemscore.Metal>
0.0000

> <Gold.Chemscore.Lipo>
86.6178

> <Gold.Chemscore.Internal_Hbond>
0.0000

> <Gold.Chemscore.DEClash>
1.4798

> <Gold.Chemscore.DEInternal>
1.4838

> <Gold.Chemscore.Rot>
1.6873

> <Gold.Chemscore.Internal.Correction>
   9.000000E+99

> <Gold.Chemscore.Hbonds>
donor molecule, donor type, donor heavy atom, donor atom, acceptor molecule, acceptor atom, score
      L1  H     2    25       P1 10175  0.65
      L1  H     6    43       P1 10175  0.58
      L1  H    10    33       P1  8028  0.94
      L1  H    13    34       P1  8028  0.96

> <Gold.Chemscore.Hbond.Weighted>
-12.4908

> <Gold.Chemscore.Metal.Weighted>
-0.0000

> <Gold.Chemscore.Lipo.Weighted>
-10.1343

> <Gold.Chemscore.Internal_Hbond.Weighted>
0.0000

> <Gold.Chemscore.DEClash.Weighted>
1.4798

> <Gold.Chemscore.DEInternal.Weighted>
1.4838

> <Gold.Chemscore.Rot.Weighted>
4.3194

> <Gold.Chemscore.Internal.Correction.Weighted>
   9.000000E+99

> <Gold.Protein.RotatedTorsions>
[ 6907 6896 6895 6894 ] final  115.95 input  -60.11 | X-H torsion
[ 7974 7965 7964 7962 ] final  -63.46 input  175.53 | X-H torsion
[ 8008 7997 7996 7995 ] final -130.35 input   59.86 | X-H torsion
[ 10167 10162 10161 10158 ] final  -96.93 input  -65.29 | X-H torsion
[ 10718 10713 10712 10709 ] final -162.86 input   66.30 | X-H torsion
[ 10763 10752 10751 10750 ] final  -60.81 input  -60.55 | X-H torsion
[ 11005 11000 10999 10996 ] final  -80.43 input  -57.11 | X-H torsion

> <Gold.Protein.ActiveResidues>
 VAL166  LYS551  ARG553  GLY616  TRP617  ASP618  TYR619  PRO620  LYS621  CYS622 
 ASP623  PHE694  ASN695  SER759  ASP760  ASP761  ALA762  ILE779  LEU786  VAL792 
 PHE793  MET794  SER795  GLU796  ALA797  LYS798  CYS799  TRP800  GLU811  SER814 

> <Gold.Protein.RotatedAtoms>
  152.4709  133.8027  159.6961 H   0  0  0  0  0  0  0  0  0  0  0  0  # atno 6907 bound_to 6896
  150.8697  133.7513  159.2971 H   0  0  0  0  0  0  0  0  0  0  0  0  # atno 6908 bound_to 6896
  151.5052  135.1066  159.9891 H   0  0  0  0  0  0  0  0  0  0  0  0  # atno 6909 bound_to 6896
  145.7788  140.8773  143.0341 H   0  0  0  0  0  0  0  0  0  0  0  0  # atno 7974 bound_to 7965
  155.2943  140.0450  157.3025 H   0  0  0  0  0  0  0  0  0  0  0  0  # atno 8008 bound_to 7997
  154.5523  140.2321  155.8433 H   0  0  0  0  0  0  0  0  0  0  0  0  # atno 8009 bound_to 7997
  156.1977  140.3034  155.9469 H   0  0  0  0  0  0  0  0  0  0  0  0  # atno 8010 bound_to 7997
  140.2887  143.3235  152.0367 H   0  0  0  0  0  0  0  0  0  0  0  0  # atno 10167 bound_to 10162
  156.6165  130.8872  151.2948 H   0  0  0  0  0  0  0  0  0  0  0  0  # atno 10718 bound_to 10713
  154.2749  135.6283  153.5324 H   0  0  0  0  0  0  0  0  0  0  0  0  # atno 10763 bound_to 10752
  152.9874  135.5619  154.5559 H   0  0  0  0  0  0  0  0  0  0  0  0  # atno 10764 bound_to 10752
  154.5137  135.2878  155.1296 H   0  0  0  0  0  0  0  0  0  0  0  0  # atno 10765 bound_to 10752
  141.1668  133.7150  156.8271 H   0  0  0  0  0  0  0  0  0  0  0  0  # atno 11005 bound_to 11000
  144.6800  139.9959  143.7484 LP  0  0  0  0  0  0  0  0  0  0  0  0  # atno 17320 bound_to 7965
  146.0095  139.3158  143.0879 LP  0  0  0  0  0  0  0  0  0  0  0  0  # atno 17321 bound_to 7965
  139.4943  144.6540  151.6613 LP  0  0  0  0  0  0  0  0  0  0  0  0  # atno 17342 bound_to 10162
  140.5750  144.0043  150.6237 LP  0  0  0  0  0  0  0  0  0  0  0  0  # atno 17343 bound_to 10162
  157.7240  130.9596  150.1554 LP  0  0  0  0  0  0  0  0  0  0  0  0  # atno 17370 bound_to 10713
  156.2346  130.3685  149.8405 LP  0  0  0  0  0  0  0  0  0  0  0  0  # atno 17371 bound_to 10713
  140.2077  134.8850  157.3240 LP  0  0  0  0  0  0  0  0  0  0  0  0  # atno 17394 bound_to 11000
  140.2119  134.4128  155.7608 LP  0  0  0  0  0  0  0  0  0  0  0  0  # atno 17395 bound_to 11000

$$$$
