#       Name:                AV-unprocessed.smi:1674
#       Creating user name   scv26
#       Creation time:       Fri Mar 27 07:45:42 2020


#       File generated by GOLD software.
#

@<TRIPOS>MOLECULE
AV-unprocessed.smi:1674
    53    54     1
SMALL
NO_CHARGES


@<TRIPOS>ATOM
      1 ****        -2.2624   1.7378   3.8333 C.3            1 S1                 0.0000
      2 ****        -2.4799   0.8536   2.6352 C.2            1 S1                 0.0000
      3 ****        -2.0821  -0.3714   2.7396 N.2            1 S1                 0.0000
      4 ****        -2.2209  -1.2663   1.6974 N.am           1 S1                 0.0000
      5 ****        -1.6597  -2.5939   1.9934 C.3            1 S1                 0.0000
      6 ****        -0.1301  -2.7100   1.7520 C.3            1 S1                 0.0000
      7 ****         0.5455  -2.5694   2.9866 O.3            1 S1                 0.0000
      8 ****         0.4246  -1.8054   0.6553 C.ar           1 S1                 0.0000
      9 ****         0.4188  -2.2503  -0.6836 C.ar           1 S1                 0.0000
     10 ****         0.8993  -1.4183  -1.7127 C.ar           1 S1                 0.0000
     11 ****         1.3939  -0.1323  -1.4123 C.ar           1 S1                 0.0000
     12 ****         1.9117   0.7690  -2.5202 C.3            1 S1                 0.0000
     13 ****         3.4508   0.8622  -2.5709 C.3            1 S1                 0.0000
     14 ****         3.9004   1.9119  -3.5982 C.3            1 S1                 0.0000
     15 ****         4.1134  -0.4970  -2.8535 C.3            1 S1                 0.0000
     16 ****         1.4017   0.3155  -0.0753 C.ar           1 S1                 0.0000
     17 ****         0.9216  -0.5167   0.9535 C.ar           1 S1                 0.0000
     18 ****        -2.7955  -0.9720   0.4945 C.2            1 S1                 0.0000
     19 ****        -2.9086  -1.8003  -0.4103 O.2            1 S1                 0.0000
     20 ****        -3.2438   0.4178   0.3828 C.2            1 S1                 0.0000
     21 ****        -3.8314   0.7731  -0.8684 C.1            1 S1                 0.0000
     22 ****        -4.3072   1.0816  -1.8777 N.1            1 S1                 0.0000
     23 ****        -3.1024   1.3080   1.3963 C.2            1 S1                 0.0000
     24 ****        -3.5494   2.7618   1.3281 C.3            1 S1                 0.0000
     25 ****        -3.2152   2.0363   4.2705 H              1 S1                 0.0000
     26 ****        -1.7183   2.6411   3.5569 H              1 S1                 0.0000
     27 ****        -1.6855   1.2343   4.6108 H              1 S1                 0.0000
     28 ****        -1.9160  -2.8959   3.0108 H              1 S1                 0.0000
     29 ****        -2.1555  -3.3387   1.3691 H              1 S1                 0.0000
     30 ****         0.0733  -3.7383   1.4502 H              1 S1                 0.0000
     31 ****         1.4563  -2.7843   2.8546 H              1 S1                 0.0000
     32 ****         0.0334  -3.2296  -0.9273 H              1 S1                 0.0000
     33 ****         0.8863  -1.7711  -2.7335 H              1 S1                 0.0000
     34 ****         1.5270   0.4225  -3.4806 H              1 S1                 0.0000
     35 ****         1.4873   1.7624  -2.3681 H              1 S1                 0.0000
     36 ****         3.7993   1.2021  -1.5945 H              1 S1                 0.0000
     37 ****         3.5823   1.6421  -4.6058 H              1 S1                 0.0000
     38 ****         4.9860   2.0132  -3.6086 H              1 S1                 0.0000
     39 ****         3.4824   2.8924  -3.3680 H              1 S1                 0.0000
     40 ****         3.7796  -0.9097  -3.8061 H              1 S1                 0.0000
     41 ****         3.8829  -1.2253  -2.0757 H              1 S1                 0.0000
     42 ****         5.1989  -0.4024  -2.8942 H              1 S1                 0.0000
     43 ****         1.7746   1.3005   0.1642 H              1 S1                 0.0000
     44 ****         0.9234  -0.1538   1.9709 H              1 S1                 0.0000
     45 ****        -4.0973   2.9820   0.4124 H              1 S1                 0.0000
     46 ****        -2.6856   3.4263   1.3643 H              1 S1                 0.0000
     47 ****        -4.2060   3.0040   2.1644 H              1 S1                 0.0000
     48 ****        -1.6642  -0.6782   3.5947 LP             1 S1                 0.0000
     49 ****         0.1467  -3.1894   3.6622 LP             1 S1                 0.0000
     50 ****         0.4644  -1.6268   3.3104 LP             1 S1                 0.0000
     51 ****        -2.5723  -2.7329  -0.2794 LP             1 S1                 0.0000
     52 ****        -3.3368  -1.5401  -1.2758 LP             1 S1                 0.0000
     53 ****        -4.7182   1.3481  -2.7496 LP             1 S1                 0.0000
@<TRIPOS>BOND
    1    1    2 1     
    2    1   25 1     
    3    1   26 1     
    4    1   27 1     
    5    2   23 1     
    6    2    3 2     
    7    3    4 1     
    8    4    5 1     
    9    4   18 am    
   10    5    6 1     
   11    5   28 1     
   12    5   29 1     
   13    6    7 1     
   14    6    8 1     
   15    6   30 1     
   16    7   31 1     
   17    8   17 ar    
   18    8    9 ar    
   19    9   10 ar    
   20    9   32 1     
   21   10   11 ar    
   22   10   33 1     
   23   11   12 1     
   24   11   16 ar    
   25   12   13 1     
   26   12   34 1     
   27   12   35 1     
   28   13   14 1     
   29   13   15 1     
   30   13   36 1     
   31   14   37 1     
   32   14   38 1     
   33   14   39 1     
   34   15   40 1     
   35   15   41 1     
   36   15   42 1     
   37   16   17 ar    
   38   16   43 1     
   39   17   44 1     
   40   18   19 2     
   41   18   20 1     
   42   20   21 1     
   43   20   23 2     
   44   21   22 3     
   45   23   24 1     
   46   24   45 1     
   47   24   46 1     
   48   24   47 1     
   49    3   48 1     
   50    7   49 1     
   51    7   50 1     
   52   19   51 1     
   53   19   52 1     
   54   22   53 1     
@<TRIPOS>SUBSTRUCTURE
      1 S1             1
@<TRIPOS>SET
LONE_PAIRS      STATIC     ATOMS    <user>   **** ""
6 48 49 50 51 52 53
DONOR_HYDROGENS      STATIC     ATOMS    <user>   **** ""
1 31
ATOM$BLUE        STATIC     ATOMS    COLORGROUP SYSTEM
6 48 49 50 51 52 53
ATOM$RED        STATIC     ATOMS    COLORGROUP SYSTEM
1 31
