AV-unprocessed.smi:1161|AV-procd|sdf|4917|dock8
  -GOLD-   22720 3503D 1   1.00000     0.00000
 Structure written by MMmdl.
 46 47  0  0  0  0  0  0  0  0  1 V2000
  144.3144  134.2544  150.6142 C   0  0  0  0  0  0  0  0  0  0  0  0
  144.6688  135.7477  150.5212 C   0  0  0  0  0  0  0  0  0  0  0  0
  145.2810  136.3707  151.8042 C   0  0  1  0  0  0  0  0  0  0  0  0
  144.2683  136.4163  152.9651 C   0  0  0  0  0  0  0  0  0  0  0  0
  146.3582  135.5637  152.2425 O   0  0  0  0  0  0  0  0  0  0  0  0
  145.8467  137.7957  151.5761 C   0  0  0  0  0  0  0  0  0  0  0  0
  147.1747  137.9917  152.1562 N   0  0  0  0  0  0  0  0  0  0  0  0
  147.4935  138.8954  153.0939 C   0  0  0  0  0  0  0  0  0  0  0  0
  146.6801  139.6704  153.5960 O   0  0  0  0  0  0  0  0  0  0  0  0
  148.7991  138.8276  153.4062 N   0  0  0  0  0  0  0  0  0  0  0  0
  149.5276  139.6004  154.3509 C   0  0  0  0  0  0  0  0  0  0  0  0
  150.7844  139.1181  154.7681 C   0  0  0  0  0  0  0  0  0  0  0  0
  151.5341  139.8634  155.6975 C   0  0  0  0  0  0  0  0  0  0  0  0
  151.0006  141.0813  156.1769 C   0  0  0  0  0  0  0  0  0  0  0  0
  151.6873  141.8674  157.1116 N   0  0  0  0  0  0  0  0  0  0  0  0
  151.0913  143.1811  157.3168 C   0  0  0  0  0  0  0  0  0  0  0  0
  151.9802  144.0199  158.2509 C   0  0  0  0  0  0  0  0  0  0  0  0
  152.1808  143.3177  159.4747 O   0  0  0  0  0  0  0  0  0  0  0  0
  152.8317  142.0662  159.2727 C   0  0  0  0  0  0  0  0  0  0  0  0
  151.9681  141.1751  158.3629 C   0  0  0  0  0  0  0  0  0  0  0  0
  149.8066  141.5610  155.7687 N   0  0  0  0  0  0  0  0  0  0  0  0
  149.0921  140.8412  154.8773 C   0  0  0  0  0  0  0  0  0  0  0  0
  143.9628  133.8854  149.6505 H   0  0  0  0  0  0  0  0  0  0  0  0
  143.5205  134.0711  151.3377 H   0  0  0  0  0  0  0  0  0  0  0  0
  145.1786  133.6543  150.8990 H   0  0  0  0  0  0  0  0  0  0  0  0
  145.3592  135.8686  149.6859 H   0  0  0  0  0  0  0  0  0  0  0  0
  143.7702  136.3023  150.2475 H   0  0  0  0  0  0  0  0  0  0  0  0
  143.3769  136.9794  152.6868 H   0  0  0  0  0  0  0  0  0  0  0  0
  144.6966  136.8961  153.8460 H   0  0  0  0  0  0  0  0  0  0  0  0
  143.9482  135.4201  153.2708 H   0  0  0  0  0  0  0  0  0  0  0  0
  147.1510  136.0764  152.2058 H   0  0  0  0  0  0  0  0  0  0  0  0
  145.8732  138.0072  150.5057 H   0  0  0  0  0  0  0  0  0  0  0  0
  145.1764  138.5437  152.0020 H   0  0  0  0  0  0  0  0  0  0  0  0
  147.9111  137.4002  151.7998 H   0  0  0  0  0  0  0  0  0  0  0  0
  149.3235  138.0940  152.9527 H   0  0  0  0  0  0  0  0  0  0  0  0
  151.1697  138.1836  154.3870 H   0  0  0  0  0  0  0  0  0  0  0  0
  152.4952  139.5029  156.0337 H   0  0  0  0  0  0  0  0  0  0  0  0
  150.9723  143.6868  156.3579 H   0  0  0  0  0  0  0  0  0  0  0  0
  150.0969  143.0740  157.7523 H   0  0  0  0  0  0  0  0  0  0  0  0
  152.9410  144.2372  157.7816 H   0  0  0  0  0  0  0  0  0  0  0  0
  151.5047  144.9773  158.4633 H   0  0  0  0  0  0  0  0  0  0  0  0
  153.8197  142.2247  158.8373 H   0  0  0  0  0  0  0  0  0  0  0  0
  152.9828  141.5841  160.2384 H   0  0  0  0  0  0  0  0  0  0  0  0
  151.0336  140.9272  158.8674 H   0  0  0  0  0  0  0  0  0  0  0  0
  152.4847  140.2366  158.1579 H   0  0  0  0  0  0  0  0  0  0  0  0
  148.1611  141.2969  154.5796 H   0  0  0  0  0  0  0  0  0  0  0  0
  1  2  1  0  0  0  0
  1 23  1  0  0  0  0
  1 24  1  0  0  0  0
  1 25  1  0  0  0  0
  2  3  1  0  0  0  0
  2 26  1  0  0  0  0
  2 27  1  0  0  0  0
  3  4  1  0  0  0  0
  3  5  1  0  0  0  0
  3  6  1  0  0  0  0
  4 28  1  0  0  0  0
  4 29  1  0  0  0  0
  4 30  1  0  0  0  0
  5 31  1  0  0  0  0
  6  7  1  0  0  0  0
  6 32  1  0  0  0  0
  6 33  1  0  0  0  0
  7  8  1  0  0  0  0
  7 34  1  0  0  0  0
  8  9  2  0  0  0  0
  8 10  1  0  0  0  0
 10 11  1  0  0  0  0
 10 35  1  0  0  0  0
 11 22  1  0  0  0  0
 11 12  2  0  0  0  0
 12 13  1  0  0  0  0
 12 36  1  0  0  0  0
 13 14  2  0  0  0  0
 13 37  1  0  0  0  0
 14 15  1  0  0  0  0
 14 21  1  0  0  0  0
 15 20  1  0  0  0  0
 15 16  1  0  0  0  0
 16 17  1  0  0  0  0
 16 38  1  0  0  0  0
 16 39  1  0  0  0  0
 17 18  1  0  0  0  0
 17 40  1  0  0  0  0
 17 41  1  0  0  0  0
 18 19  1  0  0  0  0
 19 20  1  0  0  0  0
 19 42  1  0  0  0  0
 19 43  1  0  0  0  0
 20 44  1  0  0  0  0
 20 45  1  0  0  0  0
 21 22  2  0  0  0  0
 22 46  1  0  0  0  0
M  END
> <s_m_source_file>
AV-unprocessed.smi

> <i_m_source_file_index>
1161

> <i_lp_mmshare_version>
43012

> <i_f3d_flags>
0

> <s_epik_input>
W0NIM11bQ0gyXVtDQEBdKFtDSDNdKShbT0hdKVtDSDJdW05IXUMoPU8pW05IXWMxW2NIXVtjSF1jKG5bY0hdMSlOMltDSDJdW0NIMl1PW0NIMl1bQ0gyXTI=

> <s_epik_cmdline>
J2VwaWtfcHl0aG9uJywgJy1waCcsICc3LjAnLCAnLXRuJywgJzgnLCAnLW1hJywgJzIwMCcsICctbWV0YWxfYmluZGluZycsICctaW1hZScsICc8aW5maWxlLm1hZT4nLCAnLW9tYWUnLCAnPG91dGZpbGUubWFlPic=

> <r_lp_tautomer_probability>
1

> <r_epik_Ionization_Penalty>
0.00208949

> <r_epik_Ionization_Penalty_Charging>
0

> <r_epik_Ionization_Penalty_Neutral>
0.00208949

> <r_epik_State_Penalty>
0.00140033

> <r_epik_Charging_Adjusted_Penalty>
0.00140033

> <i_epik_Tot_Q>
0

> <i_epik_Tot_abs_Q>
0

> <r_epik_Metal_State_Penalty>
-0

> <b_epik_Metal_Only>
0

> <s_lp_Force_Field>
OPLS_2005

> <r_lp_Energy>
26.851

> <b_lp_Chiralities_Consistent>
1

> <s_lp_Variant>
AV-unprocessed.smi:1161-1

> <Gold.Version>
5.8.1

> <Gold.Id.Protein>
6NUR|6NUR_protein|mol2

> <Gold.PLP.Fitness>
46.2128

> <Gold.PLP.PLP>
-40.8642

> <Gold.PLP.part.hbond>
-3.9110

> <Gold.PLP.part.metal>
0.0000

> <Gold.PLP.part.buried>
1.6996

> <Gold.PLP.part.nonpolar>
-39.4623

> <Gold.PLP.part.repulsive>
0.4638

> <Gold.PLP.ligand.clash>
0.0000

> <Gold.PLP.ligand.torsion>
1.1656

> <Gold.PLP.Chemscore.Hbond>
2.5074

> <Gold.PLP.Chemscore.CHOScore>
0.0000

> <Gold.PLP.Chemscore.Metal>
0.0000

> <Gold.Chemscore.Hbonds>
donor molecule, donor type, donor heavy atom, donor atom, acceptor molecule, acceptor atom, score
      L1  H     5    31       P1  7948  1.00
      L1  H     7    34       P1  7948  1.00
      L1  H    10    35       P1  7948  0.56

> <Gold.PLP.Chemscore.Internal.Correction>
0.1576

> <Gold.Rescore>
     Score         DG    S(hbond)    S(metal)    S(lipo)     H(rot)  DE(clash)    DE(int)     intcor
     16.11     -19.71       2.56        0.00      95.83       2.16       1.62       1.98       ----

> <Gold.Chemscore.Fitness>
16.1100

> <Gold.Chemscore.DG>
-19.7134

> <Gold.Chemscore.ZeroCoef>
-5.4800

> <Gold.Chemscore.Hbond>
2.5628

> <Gold.Chemscore.Metal>
0.0000

> <Gold.Chemscore.Lipo>
95.8258

> <Gold.Chemscore.Internal_Hbond>
0.0000

> <Gold.Chemscore.DEClash>
1.6243

> <Gold.Chemscore.DEInternal>
1.9792

> <Gold.Chemscore.Rot>
2.1633

> <Gold.Chemscore.Internal.Correction>
   9.000000E+99

> <Gold.Chemscore.Hbonds>
donor molecule, donor type, donor heavy atom, donor atom, acceptor molecule, acceptor atom, score
      L1  H     5    31       P1  7948  0.94
      L1  H     7    34       P1  7948  0.92
      L1  H    10    35       P1  7948  0.52

> <Gold.Chemscore.Hbond.Weighted>
-8.5598

> <Gold.Chemscore.Metal.Weighted>
-0.0000

> <Gold.Chemscore.Lipo.Weighted>
-11.2116

> <Gold.Chemscore.Internal_Hbond.Weighted>
0.0000

> <Gold.Chemscore.DEClash.Weighted>
1.6243

> <Gold.Chemscore.DEInternal.Weighted>
1.9792

> <Gold.Chemscore.Rot.Weighted>
5.5379

> <Gold.Chemscore.Internal.Correction.Weighted>
   9.000000E+99

> <Gold.Protein.RotatedTorsions>
[ 6907 6896 6895 6894 ] final  -51.78 input  -60.11 | X-H torsion
[ 7974 7965 7964 7962 ] final   67.17 input  175.53 | X-H torsion
[ 8008 7997 7996 7995 ] final   84.91 input   59.86 | X-H torsion
[ 10167 10162 10161 10158 ] final  -98.75 input  -65.29 | X-H torsion
[ 10718 10713 10712 10709 ] final   91.68 input   66.30 | X-H torsion
[ 10763 10752 10751 10750 ] final   83.71 input  -60.55 | X-H torsion
[ 11005 11000 10999 10996 ] final   33.03 input  -57.11 | X-H torsion

> <Gold.Protein.ActiveResidues>
 VAL166  LYS551  ARG553  GLY616  TRP617  ASP618  TYR619  PRO620  LYS621  CYS622 
 ASP623  PHE694  ASN695  SER759  ASP760  ASP761  ALA762  ILE779  LEU786  VAL792 
 PHE793  MET794  SER795  GLU796  ALA797  LYS798  CYS799  TRP800  GLU811  SER814 

> <Gold.Protein.RotatedAtoms>
  150.8579  134.7923  159.7059 H   0  0  0  0  0  0  0  0  0  0  0  0  # atno 6907 bound_to 6896
  152.4625  134.5148  159.9774 H   0  0  0  0  0  0  0  0  0  0  0  0  # atno 6908 bound_to 6896
  151.5257  133.3420  159.2945 H   0  0  0  0  0  0  0  0  0  0  0  0  # atno 6909 bound_to 6896
  145.8179  139.3068  143.1060 H   0  0  0  0  0  0  0  0  0  0  0  0  # atno 7974 bound_to 7965
  155.9432  140.3406  155.6345 H   0  0  0  0  0  0  0  0  0  0  0  0  # atno 8008 bound_to 7997
  155.7013  140.0760  157.2427 H   0  0  0  0  0  0  0  0  0  0  0  0  # atno 8009 bound_to 7997
  154.4106  140.1639  156.2182 H   0  0  0  0  0  0  0  0  0  0  0  0  # atno 8010 bound_to 7997
  140.2697  143.3352  152.0546 H   0  0  0  0  0  0  0  0  0  0  0  0  # atno 10167 bound_to 10162
  157.6960  131.0416  150.3766 H   0  0  0  0  0  0  0  0  0  0  0  0  # atno 10718 bound_to 10713
  153.1316  135.4681  154.9357 H   0  0  0  0  0  0  0  0  0  0  0  0  # atno 10763 bound_to 10752
  154.7669  135.3147  154.8271 H   0  0  0  0  0  0  0  0  0  0  0  0  # atno 10764 bound_to 10752
  153.8812  135.6894  153.4821 H   0  0  0  0  0  0  0  0  0  0  0  0  # atno 10765 bound_to 10752
  140.2673  134.3122  155.7838 H   0  0  0  0  0  0  0  0  0  0  0  0  # atno 11005 bound_to 11000
  145.9707  140.8763  143.0164 LP  0  0  0  0  0  0  0  0  0  0  0  0  # atno 17320 bound_to 7965
  144.6750  140.1941  143.7393 LP  0  0  0  0  0  0  0  0  0  0  0  0  # atno 17321 bound_to 7965
  139.4992  144.6664  151.6345 LP  0  0  0  0  0  0  0  0  0  0  0  0  # atno 17342 bound_to 10162
  140.5899  143.9797  150.6318 LP  0  0  0  0  0  0  0  0  0  0  0  0  # atno 17343 bound_to 10162
  156.4185  130.3948  149.6842 LP  0  0  0  0  0  0  0  0  0  0  0  0  # atno 17370 bound_to 10713
  156.4101  130.7717  151.2730 LP  0  0  0  0  0  0  0  0  0  0  0  0  # atno 17371 bound_to 10713
  141.2182  133.7446  156.9281 LP  0  0  0  0  0  0  0  0  0  0  0  0  # atno 17394 bound_to 11000
  140.1406  134.9296  157.2462 LP  0  0  0  0  0  0  0  0  0  0  0  0  # atno 17395 bound_to 11000

$$$$
