#       Name:                AV-unprocessed.smi:2669
#       Creating user name   scv26
#       Creation time:       Fri Mar 27 14:36:49 2020


#       File generated by GOLD software.
#

@<TRIPOS>MOLECULE
AV-unprocessed.smi:2669
    46    48     1
SMALL
NO_CHARGES


@<TRIPOS>ATOM
      1 ****        -1.0554   1.2113  -3.5307 C.3            1 S1                 0.0000
      2 ****        -1.3769   1.2986  -2.1152 N.pl3          1 S1                 0.0000
      3 ****        -1.9074   2.4790  -1.5756 C.ar           1 S1                 0.0000
      4 ****        -2.1636   3.5355  -2.3818 N.ar           1 S1                 0.0000
      5 ****        -2.6711   4.6418  -1.8225 C.ar           1 S1                 0.0000
      6 ****        -2.9787   4.8750  -0.5371 N.ar           1 S1                 0.0000
      7 ****        -2.7286   3.8346   0.2695 C.ar           1 S1                 0.0000
      8 ****        -2.9489   3.7943   1.6356 N.2            1 S1                 0.0000
      9 ****        -2.5411   2.5645   1.9389 C.2            1 S1                 0.0000
     10 ****        -2.0804   1.7955   0.9324 N.pl3          1 S1                 0.0000
     11 ****        -1.5878   0.4324   1.0374 C.3            1 S1                 0.0000
     12 ****        -0.0479   0.3591   1.0602 C.3            1 S1                 0.0000
     13 ****         0.4306   1.0718   2.1850 O.3            1 S1                 0.0000
     14 ****         0.4561  -1.0904   1.1461 C.3            1 S1                 0.0000
     15 ****         1.7903  -1.1422   0.6588 O.3            1 S1                 0.0000
     16 ****         2.4306  -2.3625   0.6331 C.ar           1 S1                 0.0000
     17 ****         3.7470  -2.3826   0.1275 C.ar           1 S1                 0.0000
     18 ****         4.4763  -3.5853   0.0617 C.ar           1 S1                 0.0000
     19 ****         3.8926  -4.7867   0.5046 C.ar           1 S1                 0.0000
     20 ****         4.7839  -6.2620   0.4250 Cl             1 S1                 0.0000
     21 ****         2.5801  -4.7814   1.0125 C.ar           1 S1                 0.0000
     22 ****         1.8508  -3.5780   1.0777 C.ar           1 S1                 0.0000
     23 ****        -2.1880   2.5997  -0.2001 C.ar           1 S1                 0.0000
     24 ****        -0.6328   0.2323  -3.7567 H              1 S1                 0.0000
     25 ****        -0.3242   1.9708  -3.8092 H              1 S1                 0.0000
     26 ****        -1.9502   1.3456  -4.1392 H              1 S1                 0.0000
     27 ****        -1.1742   0.5129  -1.5144 H              1 S1                 0.0000
     28 ****        -2.8595   5.4605  -2.5010 H              1 S1                 0.0000
     29 ****        -2.5765   2.2011   2.9556 H              1 S1                 0.0000
     30 ****        -2.0025  -0.0203   1.9393 H              1 S1                 0.0000
     31 ****        -1.9853  -0.1390   0.1982 H              1 S1                 0.0000
     32 ****         0.3440   0.8279   0.1568 H              1 S1                 0.0000
     33 ****         0.1172   0.6456   2.9678 H              1 S1                 0.0000
     34 ****         0.3829  -1.4665   2.1681 H              1 S1                 0.0000
     35 ****        -0.1643  -1.7256   0.5117 H              1 S1                 0.0000
     36 ****         4.2032  -1.4653  -0.2151 H              1 S1                 0.0000
     37 ****         5.4831  -3.5838  -0.3295 H              1 S1                 0.0000
     38 ****         2.1286  -5.7017   1.3530 H              1 S1                 0.0000
     39 ****         0.8470  -3.6152   1.4727 H              1 S1                 0.0000
     40 ****        -1.9798   3.4916  -3.3638 LP             1 S1                 0.0000
     41 ****        -3.3579   5.7415  -0.2126 LP             1 S1                 0.0000
     42 ****        -3.3177   4.5032   2.2367 LP             1 S1                 0.0000
     43 ****         0.0936   2.0128   2.1558 LP             1 S1                 0.0000
     44 ****         1.4306   1.0756   2.1809 LP             1 S1                 0.0000
     45 ****         2.3384  -0.5325   1.2314 LP             1 S1                 0.0000
     46 ****         1.7764  -0.7956  -0.2791 LP             1 S1                 0.0000
@<TRIPOS>BOND
    1    1    2 1     
    2    1   24 1     
    3    1   25 1     
    4    1   26 1     
    5    2    3 1     
    6    2   27 1     
    7    3   23 ar    
    8    3    4 ar    
    9    4    5 ar    
   10    5    6 ar    
   11    5   28 1     
   12    6    7 ar    
   13    7   23 ar    
   14    7    8 1     
   15    8    9 2     
   16    9   10 1     
   17    9   29 1     
   18   10   11 1     
   19   10   23 1     
   20   11   12 1     
   21   11   30 1     
   22   11   31 1     
   23   12   13 1     
   24   12   14 1     
   25   12   32 1     
   26   13   33 1     
   27   14   15 1     
   28   14   34 1     
   29   14   35 1     
   30   15   16 1     
   31   16   22 ar    
   32   16   17 ar    
   33   17   18 ar    
   34   17   36 1     
   35   18   19 ar    
   36   18   37 1     
   37   19   20 1     
   38   19   21 ar    
   39   21   22 ar    
   40   21   38 1     
   41   22   39 1     
   42    4   40 1     
   43    6   41 1     
   44    8   42 1     
   45   13   43 1     
   46   13   44 1     
   47   15   45 1     
   48   15   46 1     
@<TRIPOS>SUBSTRUCTURE
      1 S1             1
@<TRIPOS>SET
LONE_PAIRS      STATIC     ATOMS    <user>   **** ""
7 40 41 42 43 44 45 46
DONOR_HYDROGENS      STATIC     ATOMS    <user>   **** ""
2 27 33
ATOM$BLUE        STATIC     ATOMS    COLORGROUP SYSTEM
7 40 41 42 43 44 45 46
ATOM$RED        STATIC     ATOMS    COLORGROUP SYSTEM
2 27 33
