AV-unprocessed.smi:2279|AV-procd|sdf|9184|dock5
  -GOLD-   2272012403D 1   1.00000     0.00000
 Structure written by MMmdl.
 58 60  0  0  0  0  0  0  0  0  3 V2000
  153.0800  143.3843  163.0775 C   0  0  0  0  0  0  0  0  0  0  0  0
  152.7566  143.2357  161.6056 C   0  0  0  0  0  0  0  0  0  0  0  0
  152.3890  144.3522  160.8304 C   0  0  0  0  0  0  0  0  0  0  0  0
  152.0978  144.1482  159.4675 C   0  0  0  0  0  0  0  0  0  0  0  0
  151.7018  145.3047  158.5740 C   0  0  0  0  0  0  0  0  0  0  0  0
  152.1514  142.9357  158.8760 N   0  0  0  0  0  0  0  0  0  0  0  0
  152.5046  141.8532  159.6126 C   0  0  0  0  0  0  0  0  0  0  0  0
  152.6037  140.5395  159.0812 N   0  0  0  0  0  0  0  0  0  0  0  0
  151.9978  140.0406  157.9892 C   0  0  0  0  0  0  0  0  0  0  0  0
  151.1855  140.6442  157.2875 O   0  0  0  0  0  0  0  0  0  0  0  0
  152.3753  138.7746  157.7556 N   0  0  0  0  0  0  0  0  0  0  0  0
  151.8827  137.9432  156.6608 C   0  0  2  0  0  0  0  0  0  0  0  0
  152.4251  138.4481  155.3096 C   0  0  0  0  0  0  0  0  0  0  0  0
  151.7968  137.6783  154.1299 C   0  0  0  0  0  0  0  0  0  0  0  0
  150.3055  137.7319  154.1514 N   0  3  2  0  0  0  0  0  0  0  0  0
  149.7129  139.0558  153.7544 C   0  0  2  0  0  0  0  0  0  0  0  0
  150.0643  140.1960  154.7443 C   0  0  0  0  0  0  0  0  0  0  0  0
  149.3850  141.5265  154.3775 C   0  0  0  0  0  0  0  0  0  0  0  0
  147.9144  141.3727  154.2962 N   0  3  1  0  0  0  0  0  0  0  0  0
  147.2246  142.6599  154.0620 C   0  0  0  0  0  0  0  0  0  0  0  0
  147.5336  140.3379  153.3074 C   0  0  0  0  0  0  0  0  0  0  0  0
  148.1689  138.9798  153.6518 C   0  0  0  0  0  0  0  0  0  0  0  0
  149.8123  137.1557  155.4356 C   0  0  0  0  0  0  0  0  0  0  0  0
  150.3446  137.9370  156.6517 C   0  0  0  0  0  0  0  0  0  0  0  0
  152.8176  141.9714  160.9855 C   0  0  0  0  0  0  0  0  0  0  0  0
  153.1184  144.4339  163.3701 H   0  0  0  0  0  0  0  0  0  0  0  0
  154.0470  142.9336  163.3015 H   0  0  0  0  0  0  0  0  0  0  0  0
  152.3203  142.8883  163.6819 H   0  0  0  0  0  0  0  0  0  0  0  0
  152.3323  145.3382  161.2683 H   0  0  0  0  0  0  0  0  0  0  0  0
  151.8370  146.2603  159.0816 H   0  0  0  0  0  0  0  0  0  0  0  0
  150.6545  145.2165  158.2839 H   0  0  0  0  0  0  0  0  0  0  0  0
  152.3105  145.3131  157.6693 H   0  0  0  0  0  0  0  0  0  0  0  0
  153.2100  139.9120  159.5881 H   0  0  0  0  0  0  0  0  0  0  0  0
  153.0491  138.3572  158.3808 H   0  0  0  0  0  0  0  0  0  0  0  0
  152.2164  136.9137  156.8073 H   0  0  0  0  0  0  0  0  0  0  0  0
  152.2361  139.5166  155.2031 H   0  0  0  0  0  0  0  0  0  0  0  0
  153.5093  138.3321  155.2813 H   0  0  0  0  0  0  0  0  0  0  0  0
  152.2083  138.0249  153.1847 H   0  0  0  0  0  0  0  0  0  0  0  0
  152.0968  136.6313  154.1955 H   0  0  0  0  0  0  0  0  0  0  0  0
  150.1081  139.3377  152.7784 H   0  0  0  0  0  0  0  0  0  0  0  0
  149.7808  139.9093  155.7582 H   0  0  0  0  0  0  0  0  0  0  0  0
  151.1374  140.3836  154.7573 H   0  0  0  0  0  0  0  0  0  0  0  0
  149.6313  142.2787  155.1281 H   0  0  0  0  0  0  0  0  0  0  0  0
  149.7684  141.8935  153.4238 H   0  0  0  0  0  0  0  0  0  0  0  0
  147.5086  143.0878  153.0997 H   0  0  0  0  0  0  0  0  0  0  0  0
  147.4748  143.3787  154.8433 H   0  0  0  0  0  0  0  0  0  0  0  0
  146.1424  142.5248  154.0707 H   0  0  0  0  0  0  0  0  0  0  0  0
  146.4478  140.2361  153.2876 H   0  0  0  0  0  0  0  0  0  0  0  0
  147.8401  140.6539  152.3088 H   0  0  0  0  0  0  0  0  0  0  0  0
  147.8571  138.2767  152.8817 H   0  0  0  0  0  0  0  0  0  0  0  0
  147.7544  138.6128  154.5921 H   0  0  0  0  0  0  0  0  0  0  0  0
  148.7275  137.0724  155.4618 H   0  0  0  0  0  0  0  0  0  0  0  0
  150.1633  136.1246  155.4995 H   0  0  0  0  0  0  0  0  0  0  0  0
  149.9729  137.4817  157.5705 H   0  0  0  0  0  0  0  0  0  0  0  0
  149.9602  138.9576  156.6389 H   0  0  0  0  0  0  0  0  0  0  0  0
  153.0989  141.1013  161.5612 H   0  0  0  0  0  0  0  0  0  0  0  0
  149.9988  137.0860  153.4375 H   0  0  0  0  0  0  0  0  0  0  0  0
  147.6035  141.0437  155.1994 H   0  0  0  0  0  0  0  0  0  0  0  0
  1  2  1  0  0  0  0
  1 26  1  0  0  0  0
  1 27  1  0  0  0  0
  1 28  1  0  0  0  0
  2 25  1  0  0  0  0
  2  3  2  0  0  0  0
  3  4  1  0  0  0  0
  3 29  1  0  0  0  0
  4  5  1  0  0  0  0
  4  6  2  0  0  0  0
  5 30  1  0  0  0  0
  5 31  1  0  0  0  0
  5 32  1  0  0  0  0
  6  7  1  0  0  0  0
  7  8  1  0  0  0  0
  7 25  2  0  0  0  0
  8  9  1  0  0  0  0
  8 33  1  0  0  0  0
  9 10  2  0  0  0  0
  9 11  1  0  0  0  0
 11 12  1  0  0  0  0
 11 34  1  0  0  0  0
 12 24  1  0  0  0  0
 12 13  1  0  0  0  0
 12 35  1  0  0  0  0
 13 14  1  0  0  0  0
 13 36  1  0  0  0  0
 13 37  1  0  0  0  0
 14 15  1  0  0  0  0
 14 38  1  0  0  0  0
 14 39  1  0  0  0  0
 15 16  1  0  0  0  0
 15 23  1  0  0  0  0
 15 57  1  0  0  0  0
 16 22  1  0  0  0  0
 16 17  1  0  0  0  0
 16 40  1  0  0  0  0
 17 18  1  0  0  0  0
 17 41  1  0  0  0  0
 17 42  1  0  0  0  0
 18 19  1  0  0  0  0
 18 43  1  0  0  0  0
 18 44  1  0  0  0  0
 19 20  1  0  0  0  0
 19 21  1  0  0  0  0
 19 58  1  0  0  0  0
 20 45  1  0  0  0  0
 20 46  1  0  0  0  0
 20 47  1  0  0  0  0
 21 22  1  0  0  0  0
 21 48  1  0  0  0  0
 21 49  1  0  0  0  0
 22 50  1  0  0  0  0
 22 51  1  0  0  0  0
 23 24  1  0  0  0  0
 23 52  1  0  0  0  0
 23 53  1  0  0  0  0
 24 54  1  0  0  0  0
 24 55  1  0  0  0  0
 25 56  1  0  0  0  0
M  CHG  1  15   1
M  CHG  1  19   1
M  END
> <s_m_source_file>
AV-unprocessed.smi

> <i_m_source_file_index>
2279

> <i_lp_mmshare_version>
43012

> <i_f3d_flags>
0

> <s_epik_input>
W0NIM11jMVtjSF1jKFtDSDNdKW5jKFtjSF0xKVtOSF1DKD1PKVtOSF1bQ0hdMltDSDJdW0NIMl1OKFtDSDJdW0NIMl0yKVtDSF0zW0NIMl1bQ0gyXU4oW0NIM10pW0NIMl1bQ0gyXTM=

> <s_epik_cmdline>
J2VwaWtfcHl0aG9uJywgJy1waCcsICc3LjAnLCAnLXRuJywgJzgnLCAnLW1hJywgJzIwMCcsICctbWV0YWxfYmluZGluZycsICctaW1hZScsICc8aW5maWxlLm1hZT4nLCAnLW9tYWUnLCAnPG91dGZpbGUubWFlPic=

> <r_epik_Ionization_Penalty>
0.180973

> <r_epik_Ionization_Penalty_Charging>
0.180787

> <r_epik_Ionization_Penalty_Neutral>
0.000186186

> <r_epik_State_Penalty>
0.153592

> <r_epik_Charging_Adjusted_Penalty>
0.334379

> <i_epik_Tot_Q>
2

> <i_epik_Tot_abs_Q>
2

> <r_epik_Metal_State_Penalty>
0.153604

> <b_epik_Metal_Only>
0

> <s_lp_Force_Field>
OPLS_2005

> <r_lp_Energy>
44.6219

> <b_lp_Chiralities_Consistent>
1

> <s_lp_Variant>
AV-unprocessed.smi:2279-2

> <Gold.Version>
5.8.1

> <Gold.Id.Protein>
6NUR|6NUR_protein|mol2

> <Gold.PLP.Fitness>
54.9789

> <Gold.PLP.PLP>
-50.6487

> <Gold.PLP.part.hbond>
-1.0443

> <Gold.PLP.part.metal>
0.0000

> <Gold.PLP.part.buried>
-5.6198

> <Gold.PLP.part.nonpolar>
-45.3851

> <Gold.PLP.part.repulsive>
0.3226

> <Gold.PLP.ligand.clash>
1.2882

> <Gold.PLP.ligand.torsion>
0.2168

> <Gold.PLP.Chemscore.Hbond>
2.0000

> <Gold.PLP.Chemscore.CHOScore>
0.0000

> <Gold.PLP.Chemscore.Metal>
0.0000

> <Gold.Chemscore.Hbonds>
donor molecule, donor type, donor heavy atom, donor atom, acceptor molecule, acceptor atom, score
      L1  H    15    57       P1  7948  1.98

> <Gold.PLP.Chemscore.Internal.Correction>
0.0520

> <Gold.Rescore>
     Score         DG    S(hbond)    S(metal)    S(lipo)     H(rot)  DE(clash)    DE(int)     intcor
     15.14     -21.11       0.95        0.00     132.94       1.21       0.11       5.86       ----

> <Gold.Chemscore.Fitness>
15.1378

> <Gold.Chemscore.DG>
-21.1061

> <Gold.Chemscore.ZeroCoef>
-5.4800

> <Gold.Chemscore.Hbond>
0.9487

> <Gold.Chemscore.Metal>
0.0000

> <Gold.Chemscore.Lipo>
132.9367

> <Gold.Chemscore.Internal_Hbond>
0.0000

> <Gold.Chemscore.DEClash>
0.1122

> <Gold.Chemscore.DEInternal>
5.8561

> <Gold.Chemscore.Rot>
1.2095

> <Gold.Chemscore.Internal.Correction>
   9.000000E+99

> <Gold.Chemscore.Hbonds>
donor molecule, donor type, donor heavy atom, donor atom, acceptor molecule, acceptor atom, score
      L1  H    15    57       P1  7948  0.28

> <Gold.Chemscore.Hbond.Weighted>
-3.1688

> <Gold.Chemscore.Metal.Weighted>
-0.0000

> <Gold.Chemscore.Lipo.Weighted>
-15.5536

> <Gold.Chemscore.Internal_Hbond.Weighted>
0.0000

> <Gold.Chemscore.DEClash.Weighted>
0.1122

> <Gold.Chemscore.DEInternal.Weighted>
5.8561

> <Gold.Chemscore.Rot.Weighted>
3.0963

> <Gold.Chemscore.Internal.Correction.Weighted>
   9.000000E+99

> <Gold.Protein.RotatedTorsions>
[ 6907 6896 6895 6894 ] final  -81.86 input  -60.11 | X-H torsion
[ 7974 7965 7964 7962 ] final  -33.48 input  175.53 | X-H torsion
[ 8008 7997 7996 7995 ] final  128.52 input   59.86 | X-H torsion
[ 10167 10162 10161 10158 ] final  -35.41 input  -65.29 | X-H torsion
[ 10718 10713 10712 10709 ] final -138.61 input   66.30 | X-H torsion
[ 10763 10752 10751 10750 ] final  155.89 input  -60.55 | X-H torsion
[ 11005 11000 10999 10996 ] final   49.71 input  -57.11 | X-H torsion

> <Gold.Protein.ActiveResidues>
 VAL166  LYS551  ARG553  GLY616  TRP617  ASP618  TYR619  PRO620  LYS621  CYS622 
 ASP623  PHE694  ASN695  SER759  ASP760  ASP761  ALA762  ILE779  LEU786  VAL792 
 PHE793  MET794  SER795  GLU796  ALA797  LYS798  CYS799  TRP800  GLU811  SER814 

> <Gold.Protein.RotatedAtoms>
  150.6905  134.3753  159.5009 H   0  0  0  0  0  0  0  0  0  0  0  0  # atno 6907 bound_to 6896
  152.1563  134.8945  160.0554 H   0  0  0  0  0  0  0  0  0  0  0  0  # atno 6908 bound_to 6896
  152.0024  133.3796  159.4224 H   0  0  0  0  0  0  0  0  0  0  0  0  # atno 6909 bound_to 6896
  146.0907  140.5921  142.8866 H   0  0  0  0  0  0  0  0  0  0  0  0  # atno 7974 bound_to 7965
  156.2916  140.2643  156.2449 H   0  0  0  0  0  0  0  0  0  0  0  0  # atno 8008 bound_to 7997
  154.9940  140.0388  157.2350 H   0  0  0  0  0  0  0  0  0  0  0  0  # atno 8009 bound_to 7997
  154.7660  140.2769  155.6180 H   0  0  0  0  0  0  0  0  0  0  0  0  # atno 8010 bound_to 7997
  140.7165  143.3479  151.2217 H   0  0  0  0  0  0  0  0  0  0  0  0  # atno 10167 bound_to 10162
  156.3013  130.7430  151.1483 H   0  0  0  0  0  0  0  0  0  0  0  0  # atno 10718 bound_to 10713
  154.1756  135.2802  155.3068 H   0  0  0  0  0  0  0  0  0  0  0  0  # atno 10763 bound_to 10752
  154.6042  135.5520  153.7409 H   0  0  0  0  0  0  0  0  0  0  0  0  # atno 10764 bound_to 10752
  153.0152  135.6399  154.1895 H   0  0  0  0  0  0  0  0  0  0  0  0  # atno 10765 bound_to 10752
  140.1080  134.4993  155.8703 H   0  0  0  0  0  0  0  0  0  0  0  0  # atno 11005 bound_to 11000
  144.7358  140.4804  143.6905 LP  0  0  0  0  0  0  0  0  0  0  0  0  # atno 17320 bound_to 7965
  145.6044  139.1507  143.3111 LP  0  0  0  0  0  0  0  0  0  0  0  0  # atno 17321 bound_to 7965
  139.7003  143.9544  152.2902 LP  0  0  0  0  0  0  0  0  0  0  0  0  # atno 17342 bound_to 10162
  139.9235  144.6785  150.8437 LP  0  0  0  0  0  0  0  0  0  0  0  0  # atno 17343 bound_to 10162
  157.7368  131.0558  150.5389 LP  0  0  0  0  0  0  0  0  0  0  0  0  # atno 17370 bound_to 10713
  156.5517  130.4233  149.6104 LP  0  0  0  0  0  0  0  0  0  0  0  0  # atno 17371 bound_to 10713
  141.2123  133.6717  156.6648 LP  0  0  0  0  0  0  0  0  0  0  0  0  # atno 17394 bound_to 11000
  140.3130  134.8070  157.4191 LP  0  0  0  0  0  0  0  0  0  0  0  0  # atno 17395 bound_to 11000

$$$$
