#       Name:                AV-unprocessed.smi:1584
#       Creating user name   scv26
#       Creation time:       Fri Mar 27 06:59:36 2020


#       File generated by GOLD software.
#

@<TRIPOS>MOLECULE
AV-unprocessed.smi:1584
    44    45     1
SMALL
NO_CHARGES


@<TRIPOS>ATOM
      1 ****        -3.3240  -2.2148  -0.2520 C.3            1 S1                 0.0000
      2 ****        -2.6572  -1.0819   0.5415 C.3            1 S1                 0.0000
      3 ****        -2.6990  -1.3467   2.0590 C.3            1 S1                 0.0000
      4 ****        -2.1748  -0.2309   2.8270 N.pl3          1 S1                 0.0000
      5 ****        -0.9296  -0.0975   3.4049 C.2            1 S1                 0.0000
      6 ****        -0.8909   1.1267   4.0083 C.2            1 S1                 0.0000
      7 ****        -2.1770   1.6745   3.7432 C.2            1 S1                 0.0000
      8 ****        -2.9434   0.8595   3.0363 N.2            1 S1                 0.0000
      9 ****        -1.2718  -0.9244   0.1030 N.am           1 S1                 0.0000
     10 ****        -0.8269  -0.0151  -0.7776 C.2            1 S1                 0.0000
     11 ****        -1.5643   0.7754  -1.3673 O.2            1 S1                 0.0000
     12 ****         0.6874   0.0061  -1.0228 C.3            1 S1                 0.0000
     13 ****         1.0052  -0.1812  -2.5112 C.3            1 S1                 0.0000
     14 ****         2.5244  -0.2261  -2.7209 C.3            1 S1                 0.0000
     15 ****         3.2469   0.8517  -2.0299 N.am           1 S1                 0.0000
     16 ****         4.6154   1.0768  -2.4984 C.3            1 S1                 0.0000
     17 ****         2.7556   1.5590  -0.9835 C.2            1 S1                 0.0000
     18 ****         3.4195   2.4115  -0.3931 O.2            1 S1                 0.0000
     19 ****         1.3066   1.3267  -0.5236 C.3            1 S1                 0.0000
     20 ****        -4.3653  -2.3405   0.0453 H              1 S1                 0.0000
     21 ****        -2.8147  -3.1657  -0.0917 H              1 S1                 0.0000
     22 ****        -3.3114  -2.0052  -1.3221 H              1 S1                 0.0000
     23 ****        -3.2150  -0.1639   0.3463 H              1 S1                 0.0000
     24 ****        -3.7245  -1.5314   2.3821 H              1 S1                 0.0000
     25 ****        -2.1282  -2.2421   2.3092 H              1 S1                 0.0000
     26 ****        -0.1818  -0.8735   3.3346 H              1 S1                 0.0000
     27 ****        -0.0690   1.5647   4.5548 H              1 S1                 0.0000
     28 ****        -2.5734   2.6340   4.0404 H              1 S1                 0.0000
     29 ****        -0.5912  -1.5355   0.5304 H              1 S1                 0.0000
     30 ****         1.1393  -0.8193  -0.4689 H              1 S1                 0.0000
     31 ****         0.5527  -1.0974  -2.8932 H              1 S1                 0.0000
     32 ****         0.5839   0.6407  -3.0931 H              1 S1                 0.0000
     33 ****         2.9137  -1.1774  -2.3560 H              1 S1                 0.0000
     34 ****         2.7353  -0.1927  -3.7908 H              1 S1                 0.0000
     35 ****         5.3287   0.9650  -1.6802 H              1 S1                 0.0000
     36 ****         4.7183   2.0830  -2.9069 H              1 S1                 0.0000
     37 ****         4.9057   0.3713  -3.2778 H              1 S1                 0.0000
     38 ****         0.7215   2.1788  -0.8735 H              1 S1                 0.0000
     39 ****         1.2745   1.3593   0.5664 H              1 S1                 0.0000
     40 ****        -3.8813   1.0160   2.7267 LP             1 S1                 0.0000
     41 ****        -2.5500   0.7600  -1.1994 LP             1 S1                 0.0000
     42 ****        -1.1775   1.4327  -2.0140 LP             1 S1                 0.0000
     43 ****         4.3575   2.6030  -0.6817 LP             1 S1                 0.0000
     44 ****         3.0206   2.9123   0.3751 LP             1 S1                 0.0000
@<TRIPOS>BOND
    1    1    2 1     
    2    1   20 1     
    3    1   21 1     
    4    1   22 1     
    5    2    3 1     
    6    2    9 1     
    7    2   23 1     
    8    3    4 1     
    9    3   24 1     
   10    3   25 1     
   11    4    8 1     
   12    4    5 1     
   13    5    6 2     
   14    5   26 1     
   15    6    7 1     
   16    6   27 1     
   17    7    8 2     
   18    7   28 1     
   19    9   10 am    
   20    9   29 1     
   21   10   11 2     
   22   10   12 1     
   23   12   19 1     
   24   12   13 1     
   25   12   30 1     
   26   13   14 1     
   27   13   31 1     
   28   13   32 1     
   29   14   15 1     
   30   14   33 1     
   31   14   34 1     
   32   15   16 1     
   33   15   17 am    
   34   16   35 1     
   35   16   36 1     
   36   16   37 1     
   37   17   18 2     
   38   17   19 1     
   39   19   38 1     
   40   19   39 1     
   41    8   40 1     
   42   11   41 1     
   43   11   42 1     
   44   18   43 1     
   45   18   44 1     
@<TRIPOS>SUBSTRUCTURE
      1 S1             1
@<TRIPOS>SET
LONE_PAIRS      STATIC     ATOMS    <user>   **** ""
5 40 41 42 43 44
DONOR_HYDROGENS      STATIC     ATOMS    <user>   **** ""
1 29
ATOM$BLUE        STATIC     ATOMS    COLORGROUP SYSTEM
5 40 41 42 43 44
ATOM$RED        STATIC     ATOMS    COLORGROUP SYSTEM
1 29
