AV-unprocessed.smi:3354|AV-procd|sdf|12955|dock5
  -GOLD-   2272019393D 1   1.00000     0.00000
 Structure written by MMmdl.
 38 40  0  0  0  0  0  0  0  0  1 V2000
  154.9528  128.9112  154.8875 C   0  0  0  0  0  0  0  0  0  0  0  0
  153.6441  129.6383  154.6668 C   0  0  2  0  0  0  0  0  0  0  0  0
  153.2179  130.7319  155.6175 C   0  0  0  0  0  0  0  0  0  0  0  0
  152.4651  129.4158  155.5894 C   0  0  1  0  0  0  0  0  0  0  0  0
  151.1540  129.3377  155.0150 N   0  0  0  0  0  0  0  0  0  0  0  0
  150.4575  130.5062  154.4944 C   0  0  0  0  0  0  0  0  0  0  0  0
  148.9855  130.0761  154.3442 C   0  0  1  0  0  0  0  0  0  0  0  0
  148.4174  130.4960  153.0659 N   0  0  0  0  0  0  0  0  0  0  0  0
  147.1934  131.0174  152.9038 C   0  0  0  0  0  0  0  0  0  0  0  0
  146.4169  131.2217  153.8365 O   0  0  0  0  0  0  0  0  0  0  0  0
  146.9517  131.2909  151.6100 N   0  0  0  0  0  0  0  0  0  0  0  0
  145.7751  131.8167  151.0086 C   0  0  0  0  0  0  0  0  0  0  0  0
  144.6453  132.2853  151.7233 C   0  0  0  0  0  0  0  0  0  0  0  0
  143.5358  132.7664  151.0015 C   0  0  0  0  0  0  0  0  0  0  0  0
  143.5918  132.7567  149.5945 C   0  0  0  0  0  0  0  0  0  0  0  0
  144.6567  132.3041  148.9001 N   0  0  0  0  0  0  0  0  0  0  0  0
  145.7165  131.8441  149.5987 C   0  0  0  0  0  0  0  0  0  0  0  0
  148.9917  128.5486  154.4879 C   0  0  0  0  0  0  0  0  0  0  0  0
  150.3731  128.2520  155.0458 C   0  0  0  0  0  0  0  0  0  0  0  0
  150.6914  127.1434  155.4746 O   0  0  0  0  0  0  0  0  0  0  0  0
  155.1441  128.7705  155.9517 H   0  0  0  0  0  0  0  0  0  0  0  0
  155.7758  129.4824  154.4583 H   0  0  0  0  0  0  0  0  0  0  0  0
  154.9207  127.9326  154.4085 H   0  0  0  0  0  0  0  0  0  0  0  0
  153.4089  129.8035  153.6167 H   0  0  0  0  0  0  0  0  0  0  0  0
  153.8491  130.9234  156.4829 H   0  0  0  0  0  0  0  0  0  0  0  0
  152.7690  131.6180  155.1741 H   0  0  0  0  0  0  0  0  0  0  0  0
  152.6391  128.7669  156.4467 H   0  0  0  0  0  0  0  0  0  0  0  0
  150.5503  131.3597  155.1673 H   0  0  0  0  0  0  0  0  0  0  0  0
  150.8998  130.7801  153.5350 H   0  0  0  0  0  0  0  0  0  0  0  0
  148.3990  130.4975  155.1634 H   0  0  0  0  0  0  0  0  0  0  0  0
  148.9942  130.3695  152.2470 H   0  0  0  0  0  0  0  0  0  0  0  0
  147.7196  131.1272  150.9755 H   0  0  0  0  0  0  0  0  0  0  0  0
  144.5966  132.2758  152.8006 H   0  0  0  0  0  0  0  0  0  0  0  0
  142.6590  133.1308  151.5161 H   0  0  0  0  0  0  0  0  0  0  0  0
  142.7573  133.1174  149.0116 H   0  0  0  0  0  0  0  0  0  0  0  0
  146.5485  131.4867  149.0092 H   0  0  0  0  0  0  0  0  0  0  0  0
  148.2081  128.1969  155.1600 H   0  0  0  0  0  0  0  0  0  0  0  0
  148.8811  128.0403  153.5289 H   0  0  0  0  0  0  0  0  0  0  0  0
  1  2  1  0  0  0  0
  1 21  1  0  0  0  0
  1 22  1  0  0  0  0
  1 23  1  0  0  0  0
  2  4  1  0  0  0  0
  2  3  1  0  0  0  0
  2 24  1  0  0  0  0
  3  4  1  0  0  0  0
  3 25  1  0  0  0  0
  3 26  1  0  0  0  0
  4  5  1  0  0  0  0
  4 27  1  0  0  0  0
  5 19  1  0  0  0  0
  5  6  1  0  0  0  0
  6  7  1  0  0  0  0
  6 28  1  0  0  0  0
  6 29  1  0  0  0  0
  7  8  1  0  0  0  0
  7 18  1  0  0  0  0
  7 30  1  0  0  0  0
  8  9  1  0  0  0  0
  8 31  1  0  0  0  0
  9 10  2  0  0  0  0
  9 11  1  0  0  0  0
 11 12  1  0  0  0  0
 11 32  1  0  0  0  0
 12 17  1  0  0  0  0
 12 13  2  0  0  0  0
 13 14  1  0  0  0  0
 13 33  1  0  0  0  0
 14 15  2  0  0  0  0
 14 34  1  0  0  0  0
 15 16  1  0  0  0  0
 15 35  1  0  0  0  0
 16 17  2  0  0  0  0
 17 36  1  0  0  0  0
 18 19  1  0  0  0  0
 18 37  1  0  0  0  0
 18 38  1  0  0  0  0
 19 20  2  0  0  0  0
M  END
> <s_m_source_file>
AV-unprocessed.smi

> <i_m_source_file_index>
3354

> <i_lp_mmshare_version>
43012

> <i_f3d_flags>
0

> <s_epik_input>
W0NIM11bQ0BASF0xW0NIMl1bQ0BIXTFOMltDSDJdW0NASF0oW0NIMl1DMj1PKVtOSF1DKD1PKVtOSF1jM1tjSF1bY0hdW2NIXW5bY0hdMw==

> <s_epik_cmdline>
J2VwaWtfcHl0aG9uJywgJy1waCcsICc3LjAnLCAnLXRuJywgJzgnLCAnLW1hJywgJzIwMCcsICctbWV0YWxfYmluZGluZycsICctaW1hZScsICc8aW5maWxlLm1hZT4nLCAnLW9tYWUnLCAnPG91dGZpbGUubWFlPic=

> <r_epik_Ionization_Penalty>
0.00456191

> <r_epik_Ionization_Penalty_Charging>
0

> <r_epik_Ionization_Penalty_Neutral>
0.00456191

> <r_epik_State_Penalty>
0.00327094

> <r_epik_Charging_Adjusted_Penalty>
0.00327094

> <i_epik_Tot_Q>
0

> <i_epik_Tot_abs_Q>
0

> <r_epik_Metal_State_Penalty>
-0

> <b_epik_Metal_Only>
0

> <s_lp_Force_Field>
OPLS_2005

> <r_lp_Energy>
43.1486

> <b_lp_Chiralities_Consistent>
1

> <s_lp_Variant>
AV-unprocessed.smi:3354-1

> <Gold.Version>
5.8.1

> <Gold.Id.Protein>
6NUR|6NUR_protein|mol2

> <Gold.PLP.Fitness>
43.2120

> <Gold.PLP.PLP>
-35.0025

> <Gold.PLP.part.hbond>
-2.1826

> <Gold.PLP.part.metal>
0.0000

> <Gold.PLP.part.buried>
-4.2443

> <Gold.PLP.part.nonpolar>
-29.2505

> <Gold.PLP.part.repulsive>
0.4706

> <Gold.PLP.ligand.clash>
0.0000

> <Gold.PLP.ligand.torsion>
0.3317

> <Gold.PLP.Chemscore.Hbond>
1.5794

> <Gold.PLP.Chemscore.CHOScore>
1.3219

> <Gold.PLP.Chemscore.Metal>
0.0000

> <Gold.Chemscore.Hbonds>
donor molecule, donor type, donor heavy atom, donor atom, acceptor molecule, acceptor atom, score
      L1  H     8    31       P1 10747  0.73
      L1  H    11    32       P1 10747  0.83
      L1  C    15    35       P1 10186  1.00
      L1  C    17    36       P1 10747  0.31

> <Gold.PLP.Chemscore.Internal.Correction>
0.1690

> <Gold.Rescore>
     Score         DG    S(hbond)    S(metal)    S(lipo)     H(rot)  DE(clash)    DE(int)     intcor
     14.00     -15.47       1.11        0.00      80.70       1.24       0.01       1.45       ----

> <Gold.Chemscore.Fitness>
14.0038

> <Gold.Chemscore.DG>
-15.4697

> <Gold.Chemscore.ZeroCoef>
-5.4800

> <Gold.Chemscore.Hbond>
1.1116

> <Gold.Chemscore.Metal>
0.0000

> <Gold.Chemscore.Lipo>
80.6958

> <Gold.Chemscore.Internal_Hbond>
0.0000

> <Gold.Chemscore.DEClash>
0.0149

> <Gold.Chemscore.DEInternal>
1.4511

> <Gold.Chemscore.Rot>
1.2361

> <Gold.Chemscore.Internal.Correction>
   9.000000E+99

> <Gold.Chemscore.Hbonds>
donor molecule, donor type, donor heavy atom, donor atom, acceptor molecule, acceptor atom, score
      L1  H     8    31       P1 10747  0.14
      L1  H    11    32       P1 10747  0.82

> <Gold.Chemscore.Hbond.Weighted>
-3.7126

> <Gold.Chemscore.Metal.Weighted>
-0.0000

> <Gold.Chemscore.Lipo.Weighted>
-9.4414

> <Gold.Chemscore.Internal_Hbond.Weighted>
0.0000

> <Gold.Chemscore.DEClash.Weighted>
0.0149

> <Gold.Chemscore.DEInternal.Weighted>
1.4511

> <Gold.Chemscore.Rot.Weighted>
3.1643

> <Gold.Chemscore.Internal.Correction.Weighted>
   9.000000E+99

> <Gold.Protein.RotatedTorsions>
[ 6907 6896 6895 6894 ] final  118.23 input  -60.11 | X-H torsion
[ 7974 7965 7964 7962 ] final  -43.24 input  175.53 | X-H torsion
[ 8008 7997 7996 7995 ] final   64.56 input   59.86 | X-H torsion
[ 10167 10162 10161 10158 ] final  110.60 input  -65.29 | X-H torsion
[ 10718 10713 10712 10709 ] final   45.95 input   66.30 | X-H torsion
[ 10763 10752 10751 10750 ] final   41.15 input  -60.55 | X-H torsion
[ 11005 11000 10999 10996 ] final  144.27 input  -57.11 | X-H torsion

> <Gold.Protein.ActiveResidues>
 VAL166  LYS551  ARG553  GLY616  TRP617  ASP618  TYR619  PRO620  LYS621  CYS622 
 ASP623  PHE694  ASN695  SER759  ASP760  ASP761  ALA762  ILE779  LEU786  VAL792 
 PHE793  MET794  SER795  GLU796  ALA797  LYS798  CYS799  TRP800  GLU811  SER814 

> <Gold.Protein.RotatedAtoms>
  152.4557  133.7719  159.6803 H   0  0  0  0  0  0  0  0  0  0  0  0  # atno 6907 bound_to 6896
  150.8483  133.7817  159.3041 H   0  0  0  0  0  0  0  0  0  0  0  0  # atno 6908 bound_to 6896
  151.5420  135.1071  159.9980 H   0  0  0  0  0  0  0  0  0  0  0  0  # atno 6909 bound_to 6896
  146.0038  140.7044  142.9257 H   0  0  0  0  0  0  0  0  0  0  0  0  # atno 7974 bound_to 7965
  155.6479  140.3497  155.4738 H   0  0  0  0  0  0  0  0  0  0  0  0  # atno 8008 bound_to 7997
  155.9872  140.1186  157.0695 H   0  0  0  0  0  0  0  0  0  0  0  0  # atno 8009 bound_to 7997
  154.4208  140.1126  156.5502 H   0  0  0  0  0  0  0  0  0  0  0  0  # atno 8010 bound_to 7997
  139.6676  144.7127  151.1748 H   0  0  0  0  0  0  0  0  0  0  0  0  # atno 10167 bound_to 10162
  157.4429  130.8092  149.7712 H   0  0  0  0  0  0  0  0  0  0  0  0  # atno 10718 bound_to 10713
  152.9916  135.6170  154.2740 H   0  0  0  0  0  0  0  0  0  0  0  0  # atno 10763 bound_to 10752
  154.2472  135.2786  155.2832 H   0  0  0  0  0  0  0  0  0  0  0  0  # atno 10764 bound_to 10752
  154.5319  135.5786  153.6823 H   0  0  0  0  0  0  0  0  0  0  0  0  # atno 10765 bound_to 10752
  140.0619  134.9200  157.1199 H   0  0  0  0  0  0  0  0  0  0  0  0  # atno 11005 bound_to 11000
  144.6928  140.3279  143.7221 LP  0  0  0  0  0  0  0  0  0  0  0  0  # atno 17320 bound_to 7965
  145.7447  139.1775  143.2356 LP  0  0  0  0  0  0  0  0  0  0  0  0  # atno 17321 bound_to 7965
  140.7605  143.5895  150.8811 LP  0  0  0  0  0  0  0  0  0  0  0  0  # atno 17342 bound_to 10162
  139.9558  143.6220  152.3016 LP  0  0  0  0  0  0  0  0  0  0  0  0  # atno 17343 bound_to 10162
  155.9956  130.3911  150.2813 LP  0  0  0  0  0  0  0  0  0  0  0  0  # atno 17370 bound_to 10713
  157.0979  131.0187  151.3097 LP  0  0  0  0  0  0  0  0  0  0  0  0  # atno 17371 bound_to 10713
  140.3757  134.2342  155.7174 LP  0  0  0  0  0  0  0  0  0  0  0  0  # atno 17394 bound_to 11000
  141.1977  133.8053  157.0617 LP  0  0  0  0  0  0  0  0  0  0  0  0  # atno 17395 bound_to 11000

$$$$
