AV-unprocessed.smi:3241|AV-procd|sdf|12389|dock4
  -GOLD-   2272018253D 1   1.00000     0.00000
 Structure written by MMmdl.
 43 44  0  0  0  0  0  0  0  0  1 V2000
  154.4817  140.4105  161.0425 C   0  0  0  0  0  0  0  0  0  0  0  0
  153.7686  141.3022  160.0117 C   0  0  2  0  0  0  0  0  0  0  0  0
  153.0040  142.4432  160.7122 C   0  0  0  0  0  0  0  0  0  0  0  0
  152.2809  143.3472  159.7023 C   0  0  0  0  0  0  0  0  0  0  0  0
  151.3335  142.5314  158.8112 C   0  0  0  0  0  0  0  0  0  0  0  0
  152.0850  141.3957  158.1004 C   0  0  0  0  0  0  0  0  0  0  0  0
  152.8194  140.4846  159.1064 C   0  0  1  0  0  0  0  0  0  0  0  0
  153.6122  139.5325  158.4096 O   0  0  0  0  0  0  0  0  0  0  0  0
  152.9798  138.2839  158.1694 C   0  0  0  0  0  0  0  0  0  0  0  0
  153.7354  137.5923  157.0310 C   0  0  0  0  0  0  0  0  0  0  0  0
  152.8194  136.7852  156.2337 N   0  0  0  0  0  0  0  0  0  0  0  0
  151.6780  137.5284  155.7103 C   0  0  0  0  0  0  0  0  0  0  0  0
  152.1305  138.6643  154.7783 C   0  0  0  0  0  0  0  0  0  0  0  0
  151.0389  139.5616  154.4391 N   0  0  0  0  0  0  0  0  0  0  0  0
  149.8416  139.2598  153.8247 C   0  0  0  0  0  0  0  0  0  0  0  0
  149.1292  140.4210  153.7296 C   0  0  0  0  0  0  0  0  0  0  0  0
  149.9855  141.3922  154.3195 C   0  0  0  0  0  0  0  0  0  0  0  0
  151.1274  140.8752  154.7429 N   0  0  0  0  0  0  0  0  0  0  0  0
  153.7676  139.9134  161.6997 H   0  0  0  0  0  0  0  0  0  0  0  0
  155.1580  140.9947  161.6668 H   0  0  0  0  0  0  0  0  0  0  0  0
  155.0765  139.6378  160.5549 H   0  0  0  0  0  0  0  0  0  0  0  0
  154.5348  141.7532  159.3791 H   0  0  0  0  0  0  0  0  0  0  0  0
  152.2769  142.0256  161.4102 H   0  0  0  0  0  0  0  0  0  0  0  0
  153.6929  143.0430  161.3082 H   0  0  0  0  0  0  0  0  0  0  0  0
  151.7217  144.1207  160.2292 H   0  0  0  0  0  0  0  0  0  0  0  0
  153.0145  143.8633  159.0816 H   0  0  0  0  0  0  0  0  0  0  0  0
  150.5281  142.1145  159.4172 H   0  0  0  0  0  0  0  0  0  0  0  0
  150.8621  143.1832  158.0750 H   0  0  0  0  0  0  0  0  0  0  0  0
  151.3790  140.8171  157.5050 H   0  0  0  0  0  0  0  0  0  0  0  0
  152.8051  141.8203  157.3995 H   0  0  0  0  0  0  0  0  0  0  0  0
  152.0914  139.9761  159.7415 H   0  0  0  0  0  0  0  0  0  0  0  0
  152.9807  137.6558  159.0620 H   0  0  0  0  0  0  0  0  0  0  0  0
  151.9413  138.4446  157.8801 H   0  0  0  0  0  0  0  0  0  0  0  0
  154.2119  138.3398  156.3961 H   0  0  0  0  0  0  0  0  0  0  0  0
  154.5332  136.9749  157.4455 H   0  0  0  0  0  0  0  0  0  0  0  0
  153.3267  136.3581  155.4644 H   0  0  0  0  0  0  0  0  0  0  0  0
  151.0143  136.8534  155.1692 H   0  0  0  0  0  0  0  0  0  0  0  0
  151.0946  137.9476  156.5309 H   0  0  0  0  0  0  0  0  0  0  0  0
  152.9420  139.2353  155.2327 H   0  0  0  0  0  0  0  0  0  0  0  0
  152.5243  138.2461  153.8514 H   0  0  0  0  0  0  0  0  0  0  0  0
  149.5979  138.2546  153.5140 H   0  0  0  0  0  0  0  0  0  0  0  0
  148.1456  140.5559  153.3049 H   0  0  0  0  0  0  0  0  0  0  0  0
  149.8117  142.4496  154.4544 H   0  0  0  0  0  0  0  0  0  0  0  0
  1  2  1  0  0  0  0
  1 19  1  0  0  0  0
  1 20  1  0  0  0  0
  1 21  1  0  0  0  0
  2  7  1  0  0  0  0
  2  3  1  0  0  0  0
  2 22  1  0  0  0  0
  3  4  1  0  0  0  0
  3 23  1  0  0  0  0
  3 24  1  0  0  0  0
  4  5  1  0  0  0  0
  4 25  1  0  0  0  0
  4 26  1  0  0  0  0
  5  6  1  0  0  0  0
  5 27  1  0  0  0  0
  5 28  1  0  0  0  0
  6  7  1  0  0  0  0
  6 29  1  0  0  0  0
  6 30  1  0  0  0  0
  7  8  1  0  0  0  0
  7 31  1  0  0  0  0
  8  9  1  0  0  0  0
  9 10  1  0  0  0  0
  9 32  1  0  0  0  0
  9 33  1  0  0  0  0
 10 11  1  0  0  0  0
 10 34  1  0  0  0  0
 10 35  1  0  0  0  0
 11 12  1  0  0  0  0
 11 36  1  0  0  0  0
 12 13  1  0  0  0  0
 12 37  1  0  0  0  0
 12 38  1  0  0  0  0
 13 14  1  0  0  0  0
 13 39  1  0  0  0  0
 13 40  1  0  0  0  0
 14 18  1  0  0  0  0
 14 15  1  0  0  0  0
 15 16  2  0  0  0  0
 15 41  1  0  0  0  0
 16 17  1  0  0  0  0
 16 42  1  0  0  0  0
 17 18  2  0  0  0  0
 17 43  1  0  0  0  0
M  END
> <s_m_source_file>
AV-unprocessed.smi

> <i_m_source_file_index>
3241

> <i_lp_mmshare_version>
43012

> <i_f3d_flags>
0

> <s_epik_input>
W0NIM11bQ0BASF0xW0NIMl1bQ0gyXVtDSDJdW0NIMl1bQ0BIXTFPW0NIMl1bQ0gyXVtOSF1bQ0gyXVtDSDJdbjJbY0hdW2NIXVtjSF1uMg==

> <s_epik_cmdline>
J2VwaWtfcHl0aG9uJywgJy1waCcsICc3LjAnLCAnLXRuJywgJzgnLCAnLW1hJywgJzIwMCcsICctbWV0YWxfYmluZGluZycsICctaW1hZScsICc8aW5maWxlLm1hZT4nLCAnLW9tYWUnLCAnPG91dGZpbGUubWFlPic=

> <r_lp_tautomer_probability>
1

> <r_epik_Ionization_Penalty>
2.47055

> <r_epik_Ionization_Penalty_Charging>
0

> <r_epik_Ionization_Penalty_Neutral>
2.47055

> <r_epik_State_Penalty>
2.6322

> <r_epik_Charging_Adjusted_Penalty>
2.6322

> <i_epik_Tot_Q>
0

> <i_epik_Tot_abs_Q>
0

> <r_epik_Metal_State_Penalty>
2.63108

> <b_epik_Metal_Only>
0

> <s_lp_Force_Field>
OPLS_2005

> <r_lp_Energy>
15.2111

> <b_lp_Chiralities_Consistent>
1

> <s_lp_Variant>
AV-unprocessed.smi:3241-5

> <Gold.Version>
5.8.1

> <Gold.Id.Protein>
6NUR|6NUR_protein|mol2

> <Gold.PLP.Fitness>
46.1160

> <Gold.PLP.PLP>
-38.6223

> <Gold.PLP.part.hbond>
-3.0000

> <Gold.PLP.part.metal>
0.0000

> <Gold.PLP.part.buried>
-2.3147

> <Gold.PLP.part.nonpolar>
-33.1687

> <Gold.PLP.part.repulsive>
0.0766

> <Gold.PLP.ligand.clash>
0.0000

> <Gold.PLP.ligand.torsion>
0.7894

> <Gold.PLP.Chemscore.Hbond>
2.0000

> <Gold.PLP.Chemscore.CHOScore>
1.0000

> <Gold.PLP.Chemscore.Metal>
0.0000

> <Gold.Chemscore.Hbonds>
donor molecule, donor type, donor heavy atom, donor atom, acceptor molecule, acceptor atom, score
      P1  H  7989  7998       L1    18  0.01
      P1  H  7997  8008       L1     8  1.00
      L1  C    15    41       P1  7948  0.69
      L1  C    17    43       P1  8028  0.53

> <Gold.PLP.Chemscore.Internal.Correction>
0.0725

> <Gold.Rescore>
     Score         DG    S(hbond)    S(metal)    S(lipo)     H(rot)  DE(clash)    DE(int)     intcor
     18.47     -19.39       1.85        0.00     105.39       1.79       0.00       0.93       ----

> <Gold.Chemscore.Fitness>
18.4669

> <Gold.Chemscore.DG>
-19.3938

> <Gold.Chemscore.ZeroCoef>
-5.4800

> <Gold.Chemscore.Hbond>
1.8460

> <Gold.Chemscore.Metal>
0.0000

> <Gold.Chemscore.Lipo>
105.3924

> <Gold.Chemscore.Internal_Hbond>
0.0000

> <Gold.Chemscore.DEClash>
0.0000

> <Gold.Chemscore.DEInternal>
0.9269

> <Gold.Chemscore.Rot>
1.7901

> <Gold.Chemscore.Internal.Correction>
   9.000000E+99

> <Gold.Chemscore.Hbonds>
donor molecule, donor type, donor heavy atom, donor atom, acceptor molecule, acceptor atom, score
      P1  H  7997  8008       L1     8  0.84

> <Gold.Chemscore.Hbond.Weighted>
-6.1657

> <Gold.Chemscore.Metal.Weighted>
-0.0000

> <Gold.Chemscore.Lipo.Weighted>
-12.3309

> <Gold.Chemscore.Internal_Hbond.Weighted>
0.0000

> <Gold.Chemscore.DEClash.Weighted>
0.0000

> <Gold.Chemscore.DEInternal.Weighted>
0.9269

> <Gold.Chemscore.Rot.Weighted>
4.5827

> <Gold.Chemscore.Internal.Correction.Weighted>
   9.000000E+99

> <Gold.Protein.RotatedTorsions>
[ 6907 6896 6895 6894 ] final   51.67 input  -60.11 | X-H torsion
[ 7974 7965 7964 7962 ] final  145.38 input  175.53 | X-H torsion
[ 8008 7997 7996 7995 ] final  -90.54 input   59.86 | X-H torsion
[ 10167 10162 10161 10158 ] final  165.20 input  -65.29 | X-H torsion
[ 10718 10713 10712 10709 ] final  119.96 input   66.30 | X-H torsion
[ 10763 10752 10751 10750 ] final -145.58 input  -60.55 | X-H torsion
[ 11005 11000 10999 10996 ] final    6.49 input  -57.11 | X-H torsion

> <Gold.Protein.ActiveResidues>
 VAL166  LYS551  ARG553  GLY616  TRP617  ASP618  TYR619  PRO620  LYS621  CYS622 
 ASP623  PHE694  ASN695  SER759  ASP760  ASP761  ALA762  ILE779  LEU786  VAL792 
 PHE793  MET794  SER795  GLU796  ALA797  LYS798  CYS799  TRP800  GLU811  SER814 

> <Gold.Protein.RotatedAtoms>
  152.3151  134.7449  160.0326 H   0  0  0  0  0  0  0  0  0  0  0  0  # atno 6907 bound_to 6896
  151.7916  133.3354  159.3509 H   0  0  0  0  0  0  0  0  0  0  0  0  # atno 6908 bound_to 6896
  150.7340  134.5767  159.5962 H   0  0  0  0  0  0  0  0  0  0  0  0  # atno 6909 bound_to 6896
  144.8757  139.5776  143.5866 H   0  0  0  0  0  0  0  0  0  0  0  0  # atno 7974 bound_to 7965
  154.6998  140.0529  157.0447 H   0  0  0  0  0  0  0  0  0  0  0  0  # atno 8008 bound_to 7997
  155.0700  140.3198  155.4614 H   0  0  0  0  0  0  0  0  0  0  0  0  # atno 8009 bound_to 7997
  156.2756  140.2083  156.5828 H   0  0  0  0  0  0  0  0  0  0  0  0  # atno 8010 bound_to 7997
  139.4902  144.4156  151.9247 H   0  0  0  0  0  0  0  0  0  0  0  0  # atno 10167 bound_to 10162
  157.5925  131.1062  150.7969 H   0  0  0  0  0  0  0  0  0  0  0  0  # atno 10718 bound_to 10713
  154.8376  135.3409  154.6527 H   0  0  0  0  0  0  0  0  0  0  0  0  # atno 10763 bound_to 10752
  153.7140  135.6962  153.5034 H   0  0  0  0  0  0  0  0  0  0  0  0  # atno 10764 bound_to 10752
  153.2430  135.4378  155.0671 H   0  0  0  0  0  0  0  0  0  0  0  0  # atno 10765 bound_to 10752
  140.5588  134.0212  155.7964 H   0  0  0  0  0  0  0  0  0  0  0  0  # atno 11005 bound_to 11000
  146.2961  139.7282  142.9126 LP  0  0  0  0  0  0  0  0  0  0  0  0  # atno 17320 bound_to 7965
  145.4047  141.0389  143.3051 LP  0  0  0  0  0  0  0  0  0  0  0  0  # atno 17321 bound_to 7965
  140.3599  144.2986  150.5935 LP  0  0  0  0  0  0  0  0  0  0  0  0  # atno 17342 bound_to 10162
  140.5412  143.2223  151.8081 LP  0  0  0  0  0  0  0  0  0  0  0  0  # atno 17343 bound_to 10162
  156.8388  130.5041  149.5323 LP  0  0  0  0  0  0  0  0  0  0  0  0  # atno 17370 bound_to 10713
  156.0982  130.5948  150.9849 LP  0  0  0  0  0  0  0  0  0  0  0  0  # atno 17371 bound_to 10713
  141.1127  133.9590  157.2880 LP  0  0  0  0  0  0  0  0  0  0  0  0  # atno 17394 bound_to 11000
  139.9418  135.0190  156.8731 LP  0  0  0  0  0  0  0  0  0  0  0  0  # atno 17395 bound_to 11000

$$$$
