#       Name:                AV-unprocessed.smi:153
#       Creating user name   scv26
#       Creation time:       Thu Mar 26 18:49:33 2020


#       File generated by GOLD software.
#

@<TRIPOS>MOLECULE
AV-unprocessed.smi:153
    71    74     1
SMALL
NO_CHARGES


@<TRIPOS>ATOM
      1 ****        -2.7439  -2.1917  -1.1203 C.3            1 S1                 0.0000
      2 ****        -3.6204  -3.0295  -0.1721 C.3            1 S1                 0.0000
      3 ****        -4.7247  -3.5847  -0.8850 O.3            1 S1                 0.0000
      4 ****        -5.9439  -3.1064  -0.3380 C.3            1 S1                 0.0000
      5 ****        -5.6170  -2.8669   1.1296 C.3            1 S1                 0.0000
      6 ****        -4.2062  -2.3007   1.0652 C.3            1 S1                 0.0000
      7 ****        -4.3057  -0.9050   0.8299 O.3            1 S1                 0.0000
      8 ****        -3.4171  -2.5252   2.3784 C.3            1 S1                 0.0000
      9 ****        -2.0282  -2.1012   2.2980 N.pl3          1 S1                 0.0000
     10 ****        -0.9470  -2.8867   1.9743 C.2            1 S1                 0.0000
     11 ****         0.1984  -2.2647   1.9422 N.2            1 S1                 0.0000
     12 ****        -0.1050  -0.9512   2.2885 C.ar           1 S1                 0.0000
     13 ****         0.6516   0.2536   2.4298 C.ar           1 S1                 0.0000
     14 ****         1.9945   0.3700   2.2271 N.pl3          1 S1                 0.0000
     15 ****         2.8199  -0.8287   2.1437 C.3            1 S1                 0.0000
     16 ****         2.5129   1.6031   1.6308 C.3            1 S1                 0.0000
     17 ****         2.3091   1.6541   0.1021 C.3            1 S1                 0.0000
     18 ****         1.0303   2.1988  -0.1601 O.3            1 S1                 0.0000
     19 ****         3.3465   2.5702  -0.5773 C.3            1 S1                 0.0000
     20 ****         3.2014   2.5992  -2.0553 N.4            1 S1                 1.0000
     21 ****         3.7777   3.8236  -2.6598 C.3            1 S1                 0.0000
     22 ****         3.5346   3.8365  -4.1783 C.3            1 S1                 0.0000
     23 ****         4.0946   2.6654  -4.7594 O.3            1 S1                 0.0000
     24 ****         3.4949   1.4802  -4.2513 C.3            1 S1                 0.0000
     25 ****         3.7299   1.3895  -2.7337 C.3            1 S1                 0.0000
     26 ****        -0.0359   1.3721   2.7837 N.ar           1 S1                 0.0000
     27 ****        -1.3546   1.3310   2.9877 C.ar           1 S1                 0.0000
     28 ****        -2.1797   0.2895   2.8870 N.ar           1 S1                 0.0000
     29 ****        -1.5068  -0.8395   2.5260 C.ar           1 S1                 0.0000
     30 ****        -1.9006  -1.7465  -0.5926 H              1 S1                 0.0000
     31 ****        -3.3129  -1.3868  -1.5860 H              1 S1                 0.0000
     32 ****        -2.3416  -2.8119  -1.9213 H              1 S1                 0.0000
     33 ****        -3.0366  -3.8869   0.1643 H              1 S1                 0.0000
     34 ****        -6.2181  -2.1729  -0.8313 H              1 S1                 0.0000
     35 ****        -6.7554  -3.8205  -0.4797 H              1 S1                 0.0000
     36 ****        -6.3326  -2.2111   1.6273 H              1 S1                 0.0000
     37 ****        -5.6195  -3.8226   1.6554 H              1 S1                 0.0000
     38 ****        -4.7046  -0.5002   1.5849 H              1 S1                 0.0000
     39 ****        -3.8938  -1.9968   3.2050 H              1 S1                 0.0000
     40 ****        -3.4287  -3.5824   2.6468 H              1 S1                 0.0000
     41 ****        -1.0364  -3.9387   1.7452 H              1 S1                 0.0000
     42 ****         2.6043  -1.5081   2.9690 H              1 S1                 0.0000
     43 ****         3.8783  -0.5736   2.2001 H              1 S1                 0.0000
     44 ****         2.6511  -1.3508   1.2016 H              1 S1                 0.0000
     45 ****         2.1143   2.4955   2.1152 H              1 S1                 0.0000
     46 ****         3.5820   1.6255   1.8440 H              1 S1                 0.0000
     47 ****         2.3657   0.6473  -0.3109 H              1 S1                 0.0000
     48 ****         0.3849   1.6904   0.3085 H              1 S1                 0.0000
     49 ****         3.2305   3.5795  -0.1785 H              1 S1                 0.0000
     50 ****         4.3607   2.2579  -0.3232 H              1 S1                 0.0000
     51 ****         3.3252   4.7085  -2.2105 H              1 S1                 0.0000
     52 ****         4.8478   3.8677  -2.4508 H              1 S1                 0.0000
     53 ****         2.4679   3.8948  -4.4017 H              1 S1                 0.0000
     54 ****         4.0020   4.7131  -4.6270 H              1 S1                 0.0000
     55 ****         2.4283   1.4697  -4.4817 H              1 S1                 0.0000
     56 ****         3.9369   0.6185  -4.7519 H              1 S1                 0.0000
     57 ****         4.7970   1.2910  -2.5287 H              1 S1                 0.0000
     58 ****         3.2473   0.4914  -2.3501 H              1 S1                 0.0000
     59 ****        -1.8144   2.2677   3.2667 H              1 S1                 0.0000
     60 ****         2.2085   2.6348  -2.2398 H              1 S1                 0.0000
     61 ****        -4.6979  -4.5817  -0.8133 LP             1 S1                 0.0000
     62 ****        -4.6659  -3.3180  -1.8470 LP             1 S1                 0.0000
     63 ****        -4.8697  -0.7389   0.0210 LP             1 S1                 0.0000
     64 ****        -3.3935  -0.5218   0.6845 LP             1 S1                 0.0000
     65 ****         1.0953  -2.6463   1.7185 LP             1 S1                 0.0000
     66 ****         0.8422   2.1603  -1.1415 LP             1 S1                 0.0000
     67 ****         0.9992   3.1496   0.1481 LP             1 S1                 0.0000
     68 ****         5.0743   2.6427  -4.5600 LP             1 S1                 0.0000
     69 ****         3.9566   2.6984  -5.7493 LP             1 S1                 0.0000
     70 ****         0.4531   2.2376   2.8927 LP             1 S1                 0.0000
     71 ****        -3.1647   0.3309   3.0545 LP             1 S1                 0.0000
@<TRIPOS>BOND
    1    1    2 1     
    2    1   30 1     
    3    1   31 1     
    4    1   32 1     
    5    2    6 1     
    6    2    3 1     
    7    2   33 1     
    8    3    4 1     
    9    4    5 1     
   10    4   34 1     
   11    4   35 1     
   12    5    6 1     
   13    5   36 1     
   14    5   37 1     
   15    6    7 1     
   16    6    8 1     
   17    7   38 1     
   18    8    9 1     
   19    8   39 1     
   20    8   40 1     
   21    9   29 1     
   22    9   10 1     
   23   10   11 2     
   24   10   41 1     
   25   11   12 1     
   26   12   29 ar    
   27   12   13 ar    
   28   13   14 1     
   29   13   26 ar    
   30   14   15 1     
   31   14   16 1     
   32   15   42 1     
   33   15   43 1     
   34   15   44 1     
   35   16   17 1     
   36   16   45 1     
   37   16   46 1     
   38   17   18 1     
   39   17   19 1     
   40   17   47 1     
   41   18   48 1     
   42   19   20 1     
   43   19   49 1     
   44   19   50 1     
   45   20   25 1     
   46   20   21 1     
   47   20   60 1     
   48   21   22 1     
   49   21   51 1     
   50   21   52 1     
   51   22   23 1     
   52   22   53 1     
   53   22   54 1     
   54   23   24 1     
   55   24   25 1     
   56   24   55 1     
   57   24   56 1     
   58   25   57 1     
   59   25   58 1     
   60   26   27 ar    
   61   27   28 ar    
   62   27   59 1     
   63   28   29 ar    
   64    3   61 1     
   65    3   62 1     
   66    7   63 1     
   67    7   64 1     
   68   11   65 1     
   69   18   66 1     
   70   18   67 1     
   71   23   68 1     
   72   23   69 1     
   73   26   70 1     
   74   28   71 1     
@<TRIPOS>SUBSTRUCTURE
      1 S1             1
@<TRIPOS>SET
LONE_PAIRS      STATIC     ATOMS    <user>   **** ""
11 61 62 63 64 65 66 67 68 69 70 71
DONOR_HYDROGENS      STATIC     ATOMS    <user>   **** ""
3 38 48 60
ATOM$BLUE        STATIC     ATOMS    COLORGROUP SYSTEM
11 61 62 63 64 65 66 67 68 69 70 71
ATOM$RED        STATIC     ATOMS    COLORGROUP SYSTEM
3 38 48 60
