AV-unprocessed.smi:171|AV-procd|sdf|1416|dock4
  -GOLD-   2262019183D 1   1.00000     0.00000
 Structure written by MMmdl.
 56 59  0  0  0  0  0  0  0  0  1 V2000
  151.7945  140.8208  158.6754 C   0  0  0  0  0  0  0  0  0  0  0  0
  151.6302  141.8827  157.5768 C   0  0  0  0  0  0  0  0  0  0  0  0
  152.1053  143.2525  158.0874 C   0  0  0  0  0  0  0  0  0  0  0  0
  150.1770  141.8957  157.0503 C   0  0  0  0  0  0  0  0  0  0  0  0
  149.6630  140.5405  156.4876 C   0  0  2  0  0  0  0  0  0  0  0  0
  150.1076  140.3424  155.0164 C   0  0  0  0  0  0  0  0  0  0  0  0
  151.2752  140.0567  154.7623 O   0  0  0  0  0  0  0  0  0  0  0  0
  149.1988  140.4792  154.0338 N   0  0  0  0  0  0  0  0  0  0  0  0
  147.7794  140.7852  154.2113 C   0  0  0  0  0  0  0  0  0  0  0  0
  147.4409  141.2603  155.6353 C   0  0  0  0  0  0  0  0  0  0  0  0
  148.1971  140.4891  156.6195 N   0  0  0  0  0  0  0  0  0  0  0  0
  147.6104  139.3176  156.9818 C   0  0  0  0  0  0  0  0  0  0  0  0
  146.3842  138.9860  156.4960 N   0  0  0  0  0  0  0  0  0  0  0  0
  145.7964  137.8449  156.8670 C   0  0  0  0  0  0  0  0  0  0  0  0
  146.2484  136.9067  157.7008 N   0  0  0  0  0  0  0  0  0  0  0  0
  147.4776  137.2332  158.1926 C   0  0  0  0  0  0  0  0  0  0  0  0
  148.2234  138.4064  157.8864 C   0  0  0  0  0  0  0  0  0  0  0  0
  149.4359  138.3876  158.5656 N   0  0  0  0  0  0  0  0  0  0  0  0
  149.4050  137.2711  159.2405 C   0  0  0  0  0  0  0  0  0  0  0  0
  148.2620  136.5203  159.0825 N   0  0  0  0  0  0  0  0  0  0  0  0
  147.9607  135.2466  159.7169 C   0  0  0  0  0  0  0  0  0  0  0  0
  147.3753  135.3935  161.1414 C   0  0  2  0  0  0  0  0  0  0  0  0
  146.0132  135.7764  161.0364 O   0  0  0  0  0  0  0  0  0  0  0  0
  148.0990  136.4142  162.0073 C   0  0  0  0  0  0  0  0  0  0  0  0
  147.7667  135.9458  163.4187 C   0  0  0  0  0  0  0  0  0  0  0  0
  147.7347  134.5267  163.3364 O   0  0  0  0  0  0  0  0  0  0  0  0
  147.5177  134.1104  161.9888 C   0  0  1  0  0  0  0  0  0  0  0  0
  146.3645  133.0974  161.9032 C   0  0  0  0  0  0  0  0  0  0  0  0
  151.1662  141.0442  159.5382 H   0  0  0  0  0  0  0  0  0  0  0  0
  152.8272  140.7671  159.0208 H   0  0  0  0  0  0  0  0  0  0  0  0
  151.5210  139.8300  158.3115 H   0  0  0  0  0  0  0  0  0  0  0  0
  152.2826  141.5924  156.7523 H   0  0  0  0  0  0  0  0  0  0  0  0
  151.4378  143.6443  158.8554 H   0  0  0  0  0  0  0  0  0  0  0  0
  152.1585  143.9824  157.2807 H   0  0  0  0  0  0  0  0  0  0  0  0
  153.1044  143.1855  158.5187 H   0  0  0  0  0  0  0  0  0  0  0  0
  149.5413  142.1991  157.8839 H   0  0  0  0  0  0  0  0  0  0  0  0
  150.0614  142.6926  156.3132 H   0  0  0  0  0  0  0  0  0  0  0  0
  150.1061  139.7396  157.0820 H   0  0  0  0  0  0  0  0  0  0  0  0
  149.5162  140.3434  153.0848 H   0  0  0  0  0  0  0  0  0  0  0  0
  147.4696  141.5284  153.4766 H   0  0  0  0  0  0  0  0  0  0  0  0
  147.2219  139.8743  153.9906 H   0  0  0  0  0  0  0  0  0  0  0  0
  147.7102  142.3114  155.7422 H   0  0  0  0  0  0  0  0  0  0  0  0
  146.3646  141.2113  155.8017 H   0  0  0  0  0  0  0  0  0  0  0  0
  144.8239  137.6581  156.4359 H   0  0  0  0  0  0  0  0  0  0  0  0
  150.2196  136.9645  159.8805 H   0  0  0  0  0  0  0  0  0  0  0  0
  147.2688  134.6958  159.0784 H   0  0  0  0  0  0  0  0  0  0  0  0
  148.8804  134.6609  159.7455 H   0  0  0  0  0  0  0  0  0  0  0  0
  145.9299  136.6690  161.3351 H   0  0  0  0  0  0  0  0  0  0  0  0
  149.1761  136.3434  161.8504 H   0  0  0  0  0  0  0  0  0  0  0  0
  147.7996  137.4459  161.8164 H   0  0  0  0  0  0  0  0  0  0  0  0
  148.4919  136.2884  164.1572 H   0  0  0  0  0  0  0  0  0  0  0  0
  146.7813  136.3040  163.7191 H   0  0  0  0  0  0  0  0  0  0  0  0
  148.4367  133.6015  161.6943 H   0  0  0  0  0  0  0  0  0  0  0  0
  146.1939  132.7848  160.8728 H   0  0  0  0  0  0  0  0  0  0  0  0
  145.4329  133.5110  162.2897 H   0  0  0  0  0  0  0  0  0  0  0  0
  146.5917  132.2051  162.4867 H   0  0  0  0  0  0  0  0  0  0  0  0
  1  2  1  0  0  0  0
  1 29  1  0  0  0  0
  1 30  1  0  0  0  0
  1 31  1  0  0  0  0
  2  3  1  0  0  0  0
  2  4  1  0  0  0  0
  2 32  1  0  0  0  0
  3 33  1  0  0  0  0
  3 34  1  0  0  0  0
  3 35  1  0  0  0  0
  4  5  1  0  0  0  0
  4 36  1  0  0  0  0
  4 37  1  0  0  0  0
  5 11  1  0  0  0  0
  5  6  1  0  0  0  0
  5 38  1  0  0  0  0
  6  7  2  0  0  0  0
  6  8  1  0  0  0  0
  8  9  1  0  0  0  0
  8 39  1  0  0  0  0
  9 10  1  0  0  0  0
  9 40  1  0  0  0  0
  9 41  1  0  0  0  0
 10 11  1  0  0  0  0
 10 42  1  0  0  0  0
 10 43  1  0  0  0  0
 11 12  1  0  0  0  0
 12 17  1  0  0  0  0
 12 13  2  0  0  0  0
 13 14  1  0  0  0  0
 14 15  2  0  0  0  0
 14 44  1  0  0  0  0
 15 16  1  0  0  0  0
 16 20  1  0  0  0  0
 16 17  2  0  0  0  0
 17 18  1  0  0  0  0
 18 19  2  0  0  0  0
 19 20  1  0  0  0  0
 19 45  1  0  0  0  0
 20 21  1  0  0  0  0
 21 22  1  0  0  0  0
 21 46  1  0  0  0  0
 21 47  1  0  0  0  0
 22 27  1  0  0  0  0
 22 23  1  0  0  0  0
 22 24  1  0  0  0  0
 23 48  1  0  0  0  0
 24 25  1  0  0  0  0
 24 49  1  0  0  0  0
 24 50  1  0  0  0  0
 25 26  1  0  0  0  0
 25 51  1  0  0  0  0
 25 52  1  0  0  0  0
 26 27  1  0  0  0  0
 27 28  1  0  0  0  0
 27 53  1  0  0  0  0
 28 54  1  0  0  0  0
 28 55  1  0  0  0  0
 28 56  1  0  0  0  0
M  END
> <s_m_source_file>
AV-unprocessed.smi

> <i_m_source_file_index>
171

> <i_lp_mmshare_version>
43012

> <i_f3d_flags>
0

> <s_epik_input>
W0NIM11bQ0hdKFtDSDNdKVtDSDJdW0NAQEhdMUMoPU8pW05IXVtDSDJdW0NIMl1OMWMobltjSF1uMiljKGMyMyluW2NIXW4zW0NIMl1bQ0BAXTQoW09IXSlbQ0gyXVtDSDJdT1tDQEhdNFtDSDNd

> <s_epik_cmdline>
J2VwaWtfcHl0aG9uJywgJy1waCcsICc3LjAnLCAnLXRuJywgJzgnLCAnLW1hJywgJzIwMCcsICctbWV0YWxfYmluZGluZycsICctaW1hZScsICc8aW5maWxlLm1hZT4nLCAnLW9tYWUnLCAnPG91dGZpbGUubWFlPic=

> <r_lp_tautomer_probability>
1

> <r_epik_Ionization_Penalty>
0.000670584

> <r_epik_Ionization_Penalty_Charging>
0

> <r_epik_Ionization_Penalty_Neutral>
0.000670584

> <r_epik_State_Penalty>
0.000304767

> <r_epik_Charging_Adjusted_Penalty>
0.000304767

> <i_epik_Tot_Q>
0

> <i_epik_Tot_abs_Q>
0

> <r_epik_Metal_State_Penalty>
-0

> <b_epik_Metal_Only>
0

> <s_lp_Force_Field>
OPLS_2005

> <r_lp_Energy>
45.8078

> <b_lp_Chiralities_Consistent>
1

> <s_lp_Variant>
AV-unprocessed.smi:171-3

> <Gold.Version>
5.8.1

> <Gold.Id.Protein>
6NUR|6NUR_protein|mol2

> <Gold.PLP.Fitness>
44.2738

> <Gold.PLP.PLP>
-40.1611

> <Gold.PLP.part.hbond>
-3.6648

> <Gold.PLP.part.metal>
0.0000

> <Gold.PLP.part.buried>
-5.9763

> <Gold.PLP.part.nonpolar>
-31.1929

> <Gold.PLP.part.repulsive>
0.2765

> <Gold.PLP.ligand.clash>
0.0000

> <Gold.PLP.ligand.torsion>
1.1997

> <Gold.PLP.Chemscore.Hbond>
2.0000

> <Gold.PLP.Chemscore.CHOScore>
0.0000

> <Gold.PLP.Chemscore.Metal>
0.0000

> <Gold.Chemscore.Hbonds>
donor molecule, donor type, donor heavy atom, donor atom, acceptor molecule, acceptor atom, score
      L1  H     8    39       P1  7957  1.00
      P1  H  7989  7998       L1     7  1.00

> <Gold.PLP.Chemscore.Internal.Correction>
0.5121

> <Gold.Rescore>
     Score         DG    S(hbond)    S(metal)    S(lipo)     H(rot)  DE(clash)    DE(int)     intcor
     13.62     -15.74       1.86        0.00      91.64       2.61       0.31       1.82       ----

> <Gold.Chemscore.Fitness>
13.6165

> <Gold.Chemscore.DG>
-15.7431

> <Gold.Chemscore.ZeroCoef>
-5.4800

> <Gold.Chemscore.Hbond>
1.8612

> <Gold.Chemscore.Metal>
0.0000

> <Gold.Chemscore.Lipo>
91.6364

> <Gold.Chemscore.Internal_Hbond>
0.0000

> <Gold.Chemscore.DEClash>
0.3104

> <Gold.Chemscore.DEInternal>
1.8163

> <Gold.Chemscore.Rot>
2.6074

> <Gold.Chemscore.Internal.Correction>
   9.000000E+99

> <Gold.Chemscore.Hbonds>
donor molecule, donor type, donor heavy atom, donor atom, acceptor molecule, acceptor atom, score
      L1  H     8    39       P1  7957  0.99
      P1  H  7989  7998       L1     7  0.52

> <Gold.Chemscore.Hbond.Weighted>
-6.2165

> <Gold.Chemscore.Metal.Weighted>
-0.0000

> <Gold.Chemscore.Lipo.Weighted>
-10.7215

> <Gold.Chemscore.Internal_Hbond.Weighted>
0.0000

> <Gold.Chemscore.DEClash.Weighted>
0.3104

> <Gold.Chemscore.DEInternal.Weighted>
1.8163

> <Gold.Chemscore.Rot.Weighted>
6.6748

> <Gold.Chemscore.Internal.Correction.Weighted>
   9.000000E+99

> <Gold.Protein.RotatedTorsions>
[ 6907 6896 6895 6894 ] final  142.91 input  -60.11 | X-H torsion
[ 7974 7965 7964 7962 ] final   93.40 input  175.53 | X-H torsion
[ 8008 7997 7996 7995 ] final  -99.21 input   59.86 | X-H torsion
[ 10167 10162 10161 10158 ] final  173.10 input  -65.29 | X-H torsion
[ 10718 10713 10712 10709 ] final  113.69 input   66.30 | X-H torsion
[ 10763 10752 10751 10750 ] final   80.80 input  -60.55 | X-H torsion
[ 11005 11000 10999 10996 ] final  -78.00 input  -57.11 | X-H torsion

> <Gold.Protein.ActiveResidues>
 VAL166  LYS551  ARG553  GLY616  TRP617  ASP618  TYR619  PRO620  LYS621  CYS622 
 ASP623  PHE694  ASN695  SER759  ASP760  ASP761  ALA762  ILE779  LEU786  VAL792 
 PHE793  MET794  SER795  GLU796  ALA797  LYS798  CYS799  TRP800  GLU811  SER814 

> <Gold.Protein.RotatedAtoms>
  152.2128  133.4924  159.5119 H   0  0  0  0  0  0  0  0  0  0  0  0  # atno 6907 bound_to 6896
  150.6994  134.1445  159.4126 H   0  0  0  0  0  0  0  0  0  0  0  0  # atno 6908 bound_to 6896
  151.9364  135.0233  160.0583 H   0  0  0  0  0  0  0  0  0  0  0  0  # atno 6909 bound_to 6896
  145.4795  139.2279  143.2890 H   0  0  0  0  0  0  0  0  0  0  0  0  # atno 7974 bound_to 7965
  154.8117  140.0449  157.1347 H   0  0  0  0  0  0  0  0  0  0  0  0  # atno 8008 bound_to 7997
  154.9361  140.3046  155.5124 H   0  0  0  0  0  0  0  0  0  0  0  0  # atno 8009 bound_to 7997
  156.2972  140.2314  156.4425 H   0  0  0  0  0  0  0  0  0  0  0  0  # atno 8010 bound_to 7997
  139.5097  144.3299  152.0121 H   0  0  0  0  0  0  0  0  0  0  0  0  # atno 10167 bound_to 10162
  157.6324  131.0987  150.7078 H   0  0  0  0  0  0  0  0  0  0  0  0  # atno 10718 bound_to 10713
  153.1063  135.4789  154.8957 H   0  0  0  0  0  0  0  0  0  0  0  0  # atno 10763 bound_to 10752
  154.7434  135.3088  154.8690 H   0  0  0  0  0  0  0  0  0  0  0  0  # atno 10764 bound_to 10752
  153.9292  135.6846  153.4799 H   0  0  0  0  0  0  0  0  0  0  0  0  # atno 10765 bound_to 10752
  141.1663  133.7045  156.7906 H   0  0  0  0  0  0  0  0  0  0  0  0  # atno 11005 bound_to 11000
  146.2349  140.5580  142.8959 LP  0  0  0  0  0  0  0  0  0  0  0  0  # atno 17320 bound_to 7965
  144.7897  140.6008  143.6549 LP  0  0  0  0  0  0  0  0  0  0  0  0  # atno 17321 bound_to 7965
  140.2739  144.3934  150.6142 LP  0  0  0  0  0  0  0  0  0  0  0  0  # atno 17342 bound_to 10162
  140.6068  143.2168  151.6965 LP  0  0  0  0  0  0  0  0  0  0  0  0  # atno 17343 bound_to 10162
  156.7415  130.4740  149.5476 LP  0  0  0  0  0  0  0  0  0  0  0  0  # atno 17370 bound_to 10713
  156.1537  130.6327  151.0629 LP  0  0  0  0  0  0  0  0  0  0  0  0  # atno 17371 bound_to 10713
  140.2328  134.8673  157.3494 LP  0  0  0  0  0  0  0  0  0  0  0  0  # atno 17394 bound_to 11000
  140.1874  134.4414  155.7736 LP  0  0  0  0  0  0  0  0  0  0  0  0  # atno 17395 bound_to 11000

$$$$
