AV-unprocessed.smi:3056|AV-procd|sdf|11657|dock6
  -GOLD-   2272017 63D 1   1.00000     0.00000
 Structure written by MMmdl.
 47 48  0  0  0  0  0  0  0  0  1 V2000
  144.8612  135.0947  151.2637 C   0  0  0  0  0  0  0  0  0  0  0  0
  145.3759  136.1993  152.1408 C   0  0  0  0  0  0  0  0  0  0  0  0
  145.5371  136.1899  153.5551 C   0  0  0  0  0  0  0  0  0  0  0  0
  146.0191  137.3284  154.0249 N   0  0  0  0  0  0  0  0  0  0  0  0
  146.1792  138.1076  152.9315 N   0  0  0  0  0  0  0  0  0  0  0  0
  146.7046  139.4612  153.0617 C   0  0  2  0  0  0  0  0  0  0  0  0
  147.0109  140.0405  151.6662 C   0  0  0  0  0  0  0  0  0  0  0  0
  147.9269  139.5290  154.0180 C   0  0  2  0  0  0  0  0  0  0  0  0
  148.4823  140.9593  154.1945 C   0  0  0  0  0  0  0  0  0  0  0  0
  148.9784  138.6757  153.4707 N   0  0  0  0  0  0  0  0  0  0  0  0
  150.2516  138.8164  154.1905 C   0  0  0  0  0  0  0  0  0  0  0  0
  150.8379  137.4513  154.5683 C   0  0  0  0  0  0  0  0  0  0  0  0
  151.9269  137.1429  154.0836 O   0  0  0  0  0  0  0  0  0  0  0  0
  150.1577  136.6322  155.4074 N   0  0  0  0  0  0  0  0  0  0  0  0
  148.8398  136.8896  155.9956 C   0  0  0  0  0  0  0  0  0  0  0  0
  147.8547  135.8473  155.4394 C   0  0  0  0  0  0  0  0  0  0  0  0
  148.3240  134.5358  155.7442 O   0  0  0  0  0  0  0  0  0  0  0  0
  149.6204  134.2593  155.2155 C   0  0  2  0  0  0  0  0  0  0  0  0
  149.9971  132.8229  155.5949 C   0  0  0  0  0  0  0  0  0  0  0  0
  150.6239  135.2911  155.7699 C   0  0  0  0  0  0  0  0  0  0  0  0
  145.7985  137.4476  151.7815 C   0  0  0  0  0  0  0  0  0  0  0  0
  144.9015  134.1275  151.7650 H   0  0  0  0  0  0  0  0  0  0  0  0
  145.4424  135.0040  150.3457 H   0  0  0  0  0  0  0  0  0  0  0  0
  143.8242  135.2635  150.9735 H   0  0  0  0  0  0  0  0  0  0  0  0
  145.3207  135.3922  154.2503 H   0  0  0  0  0  0  0  0  0  0  0  0
  145.9024  140.0602  153.4970 H   0  0  0  0  0  0  0  0  0  0  0  0
  147.2873  141.0935  151.7199 H   0  0  0  0  0  0  0  0  0  0  0  0
  146.1397  139.9686  151.0145 H   0  0  0  0  0  0  0  0  0  0  0  0
  147.8311  139.5087  151.1828 H   0  0  0  0  0  0  0  0  0  0  0  0
  147.6145  139.1481  154.9922 H   0  0  0  0  0  0  0  0  0  0  0  0
  147.7430  141.6256  154.6387 H   0  0  0  0  0  0  0  0  0  0  0  0
  148.7792  141.3879  153.2368 H   0  0  0  0  0  0  0  0  0  0  0  0
  149.3513  140.9850  154.8509 H   0  0  0  0  0  0  0  0  0  0  0  0
  148.6602  137.7175  153.5045 H   0  0  0  0  0  0  0  0  0  0  0  0
  150.9803  139.3812  153.6101 H   0  0  0  0  0  0  0  0  0  0  0  0
  150.0832  139.3892  155.1039 H   0  0  0  0  0  0  0  0  0  0  0  0
  148.9070  136.7977  157.0803 H   0  0  0  0  0  0  0  0  0  0  0  0
  148.4589  137.8916  155.8094 H   0  0  0  0  0  0  0  0  0  0  0  0
  146.8697  135.9824  155.8859 H   0  0  0  0  0  0  0  0  0  0  0  0
  147.7357  135.9610  154.3608 H   0  0  0  0  0  0  0  0  0  0  0  0
  149.5813  134.3338  154.1272 H   0  0  0  0  0  0  0  0  0  0  0  0
  150.9781  132.5571  155.2004 H   0  0  0  0  0  0  0  0  0  0  0  0
  149.2746  132.1117  155.1940 H   0  0  0  0  0  0  0  0  0  0  0  0
  150.0253  132.6948  156.6772 H   0  0  0  0  0  0  0  0  0  0  0  0
  151.6240  135.0749  155.3919 H   0  0  0  0  0  0  0  0  0  0  0  0
  150.6891  135.2134  156.8563 H   0  0  0  0  0  0  0  0  0  0  0  0
  145.8589  137.9167  150.8102 H   0  0  0  0  0  0  0  0  0  0  0  0
  1  2  1  0  0  0  0
  1 22  1  0  0  0  0
  1 23  1  0  0  0  0
  1 24  1  0  0  0  0
  2 21  2  0  0  0  0
  2  3  1  0  0  0  0
  3  4  2  0  0  0  0
  3 25  1  0  0  0  0
  4  5  1  0  0  0  0
  5  6  1  0  0  0  0
  5 21  1  0  0  0  0
  6  7  1  0  0  0  0
  6  8  1  0  0  0  0
  6 26  1  0  0  0  0
  7 27  1  0  0  0  0
  7 28  1  0  0  0  0
  7 29  1  0  0  0  0
  8  9  1  0  0  0  0
  8 10  1  0  0  0  0
  8 30  1  0  0  0  0
  9 31  1  0  0  0  0
  9 32  1  0  0  0  0
  9 33  1  0  0  0  0
 10 11  1  0  0  0  0
 10 34  1  0  0  0  0
 11 12  1  0  0  0  0
 11 35  1  0  0  0  0
 11 36  1  0  0  0  0
 12 13  2  0  0  0  0
 12 14  1  0  0  0  0
 14 20  1  0  0  0  0
 14 15  1  0  0  0  0
 15 16  1  0  0  0  0
 15 37  1  0  0  0  0
 15 38  1  0  0  0  0
 16 17  1  0  0  0  0
 16 39  1  0  0  0  0
 16 40  1  0  0  0  0
 17 18  1  0  0  0  0
 18 19  1  0  0  0  0
 18 20  1  0  0  0  0
 18 41  1  0  0  0  0
 19 42  1  0  0  0  0
 19 43  1  0  0  0  0
 19 44  1  0  0  0  0
 20 45  1  0  0  0  0
 20 46  1  0  0  0  0
 21 47  1  0  0  0  0
M  END
> <s_m_source_file>
AV-unprocessed.smi

> <i_m_source_file_index>
3056

> <i_lp_mmshare_version>
43012

> <i_f3d_flags>
0

> <s_epik_input>
W0NIM11jMVtjSF1ubihbY0hdMSlbQ0BIXShbQ0gzXSlbQ0BIXShbQ0gzXSlbTkhdW0NIMl1DKD1PKU4yW0NIMl1bQ0gyXU9bQ0BASF0oW0NIM10pW0NIMl0y

> <s_epik_cmdline>
J2VwaWtfcHl0aG9uJywgJy1waCcsICc3LjAnLCAnLXRuJywgJzgnLCAnLW1hJywgJzIwMCcsICctbWV0YWxfYmluZGluZycsICctaW1hZScsICc8aW5maWxlLm1hZT4nLCAnLW9tYWUnLCAnPG91dGZpbGUubWFlPic=

> <r_lp_tautomer_probability>
1

> <r_epik_Ionization_Penalty>
0.667689

> <r_epik_Ionization_Penalty_Charging>
0

> <r_epik_Ionization_Penalty_Neutral>
0.667689

> <r_epik_State_Penalty>
0.684601

> <r_epik_Charging_Adjusted_Penalty>
0.684601

> <i_epik_Tot_Q>
0

> <i_epik_Tot_abs_Q>
0

> <r_epik_Metal_State_Penalty>
0.681448

> <b_epik_Metal_Only>
0

> <s_lp_Force_Field>
OPLS_2005

> <r_lp_Energy>
28.8183

> <b_lp_Chiralities_Consistent>
1

> <s_lp_Variant>
AV-unprocessed.smi:3056-13

> <Gold.Version>
5.8.1

> <Gold.Id.Protein>
6NUR|6NUR_protein|mol2

> <Gold.PLP.Fitness>
37.8405

> <Gold.PLP.PLP>
-32.8305

> <Gold.PLP.part.hbond>
-3.0000

> <Gold.PLP.part.metal>
0.0000

> <Gold.PLP.part.buried>
0.4428

> <Gold.PLP.part.nonpolar>
-32.8314

> <Gold.PLP.part.repulsive>
1.3120

> <Gold.PLP.ligand.clash>
0.0000

> <Gold.PLP.ligand.torsion>
0.6915

> <Gold.PLP.Chemscore.Hbond>
1.4808

> <Gold.PLP.Chemscore.CHOScore>
0.6065

> <Gold.PLP.Chemscore.Metal>
0.0000

> <Gold.Chemscore.Hbonds>
donor molecule, donor type, donor heavy atom, donor atom, acceptor molecule, acceptor atom, score
      L1  H    10    34       P1  7948  0.24
      P1  H 10752 10764       L1    13  1.00
      L1  C    21    47       P1 10171  0.77

> <Gold.PLP.Chemscore.Internal.Correction>
0.1310

> <Gold.Rescore>
     Score         DG    S(hbond)    S(metal)    S(lipo)     H(rot)  DE(clash)    DE(int)     intcor
     12.13     -15.02       1.38        0.00      78.96       1.68       2.38       0.52       ----

> <Gold.Chemscore.Fitness>
12.1252

> <Gold.Chemscore.DG>
-15.0194

> <Gold.Chemscore.ZeroCoef>
-5.4800

> <Gold.Chemscore.Hbond>
1.3774

> <Gold.Chemscore.Metal>
0.0000

> <Gold.Chemscore.Lipo>
78.9560

> <Gold.Chemscore.Internal_Hbond>
0.0000

> <Gold.Chemscore.DEClash>
2.3769

> <Gold.Chemscore.DEInternal>
0.5173

> <Gold.Chemscore.Rot>
1.6793

> <Gold.Chemscore.Internal.Correction>
   9.000000E+99

> <Gold.Chemscore.Hbonds>
donor molecule, donor type, donor heavy atom, donor atom, acceptor molecule, acceptor atom, score
      L1  H    10    34       P1  7948  0.24
      P1  H 10752 10764       L1    13  0.97

> <Gold.Chemscore.Hbond.Weighted>
-4.6006

> <Gold.Chemscore.Metal.Weighted>
-0.0000

> <Gold.Chemscore.Lipo.Weighted>
-9.2379

> <Gold.Chemscore.Internal_Hbond.Weighted>
0.0000

> <Gold.Chemscore.DEClash.Weighted>
2.3769

> <Gold.Chemscore.DEInternal.Weighted>
0.5173

> <Gold.Chemscore.Rot.Weighted>
4.2990

> <Gold.Chemscore.Internal.Correction.Weighted>
   9.000000E+99

> <Gold.Protein.RotatedTorsions>
[ 6907 6896 6895 6894 ] final   84.15 input  -60.11 | X-H torsion
[ 7974 7965 7964 7962 ] final  118.49 input  175.53 | X-H torsion
[ 8008 7997 7996 7995 ] final  -54.37 input   59.86 | X-H torsion
[ 10167 10162 10161 10158 ] final   49.50 input  -65.29 | X-H torsion
[ 10718 10713 10712 10709 ] final -115.41 input   66.30 | X-H torsion
[ 10763 10752 10751 10750 ] final  -88.54 input  -60.55 | X-H torsion
[ 11005 11000 10999 10996 ] final   45.69 input  -57.11 | X-H torsion

> <Gold.Protein.ActiveResidues>
 VAL166  LYS551  ARG553  GLY616  TRP617  ASP618  TYR619  PRO620  LYS621  CYS622 
 ASP623  PHE694  ASN695  SER759  ASP760  ASP761  ALA762  ILE779  LEU786  VAL792 
 PHE793  MET794  SER795  GLU796  ALA797  LYS798  CYS799  TRP800  GLU811  SER814 

> <Gold.Protein.RotatedAtoms>
  152.5345  134.2785  159.8998 H   0  0  0  0  0  0  0  0  0  0  0  0  # atno 6907 bound_to 6896
  151.2740  133.4235  159.2630 H   0  0  0  0  0  0  0  0  0  0  0  0  # atno 6908 bound_to 6896
  151.0342  134.9576  159.8184 H   0  0  0  0  0  0  0  0  0  0  0  0  # atno 6909 bound_to 6896
  145.1546  139.3190  143.4549 H   0  0  0  0  0  0  0  0  0  0  0  0  # atno 7974 bound_to 7965
  154.4161  140.1178  156.5305 H   0  0  0  0  0  0  0  0  0  0  0  0  # atno 8008 bound_to 7997
  155.6611  140.3496  155.4763 H   0  0  0  0  0  0  0  0  0  0  0  0  # atno 8009 bound_to 7997
  155.9713  140.1142  157.0800 H   0  0  0  0  0  0  0  0  0  0  0  0  # atno 8010 bound_to 7997
  140.2822  144.3143  150.6261 H   0  0  0  0  0  0  0  0  0  0  0  0  # atno 10167 bound_to 10162
  156.0894  130.6079  150.8902 H   0  0  0  0  0  0  0  0  0  0  0  0  # atno 10718 bound_to 10713
  154.6456  135.5373  153.7841 H   0  0  0  0  0  0  0  0  0  0  0  0  # atno 10763 bound_to 10752
  153.0358  135.6470  154.1094 H   0  0  0  0  0  0  0  0  0  0  0  0  # atno 10764 bound_to 10752
  154.1015  135.2933  155.3230 H   0  0  0  0  0  0  0  0  0  0  0  0  # atno 10765 bound_to 10752
  140.1436  134.4551  155.8431 H   0  0  0  0  0  0  0  0  0  0  0  0  # atno 11005 bound_to 11000
  146.3490  140.1633  142.8590 LP  0  0  0  0  0  0  0  0  0  0  0  0  # atno 17320 bound_to 7965
  145.0395  140.8934  143.5061 LP  0  0  0  0  0  0  0  0  0  0  0  0  # atno 17321 bound_to 7965
  140.5802  143.2173  151.7442 LP  0  0  0  0  0  0  0  0  0  0  0  0  # atno 17342 bound_to 10162
  139.4959  144.4091  152.0100 LP  0  0  0  0  0  0  0  0  0  0  0  0  # atno 17343 bound_to 10162
  157.6039  131.0940  150.8914 LP  0  0  0  0  0  0  0  0  0  0  0  0  # atno 17370 bound_to 10713
  156.9066  130.5265  149.5281 LP  0  0  0  0  0  0  0  0  0  0  0  0  # atno 17371 bound_to 10713
  141.2189  133.6843  156.7293 LP  0  0  0  0  0  0  0  0  0  0  0  0  # atno 17394 bound_to 11000
  140.2691  134.8406  157.3830 LP  0  0  0  0  0  0  0  0  0  0  0  0  # atno 17395 bound_to 11000

$$$$
