AV-unprocessed.smi:1022|AV-procd|sdf|4458|dock10
  -GOLD-   22720 2433D 1   1.00000     0.00000
 Structure written by MMmdl.
 33 34  0  0  0  0  0  0  0  0  1 V2000
  145.6038  143.6478  153.6941 C   0  0  0  0  0  0  0  0  0  0  0  0
  145.8283  142.3853  154.2958 O   0  0  0  0  0  0  0  0  0  0  0  0
  147.1511  141.9131  154.0958 C   0  0  0  0  0  0  0  0  0  0  0  0
  147.2037  140.4077  154.3979 C   0  0  2  0  0  0  0  0  0  0  0  0
  148.5890  139.8167  154.0925 C   0  0  0  0  0  0  0  0  0  0  0  0
  146.1829  139.7165  153.6143 N   0  0  0  0  0  0  0  0  0  0  0  0
  146.1394  138.3954  153.3897 C   0  0  0  0  0  0  0  0  0  0  0  0
  146.9780  137.6044  153.8227 O   0  0  0  0  0  0  0  0  0  0  0  0
  145.0759  138.0663  152.6359 N   0  0  0  0  0  0  0  0  0  0  0  0
  144.6800  136.7788  152.1869 C   0  0  0  0  0  0  0  0  0  0  0  0
  143.6020  136.1283  152.6459 N   0  0  0  0  0  0  0  0  0  0  0  0
  143.4452  134.8912  152.0368 N   0  0  0  0  0  0  0  0  0  0  0  0
  144.4044  134.6423  151.1373 C   0  0  0  0  0  0  0  0  0  0  0  0
  144.4490  133.3735  150.3523 C   0  0  0  0  0  0  0  0  0  0  0  0
  144.4154  132.0193  151.0266 C   0  0  0  0  0  0  0  0  0  0  0  0
  145.6823  132.5003  150.3663 C   0  0  0  0  0  0  0  0  0  0  0  0
  145.5980  135.9247  150.9589 S   0  0  0  0  0  0  0  0  0  0  0  0
  144.5772  143.9643  153.8799 H   0  0  0  0  0  0  0  0  0  0  0  0
  145.7516  143.6016  152.6145 H   0  0  0  0  0  0  0  0  0  0  0  0
  146.2698  144.4065  154.1072 H   0  0  0  0  0  0  0  0  0  0  0  0
  147.4750  142.1091  153.0719 H   0  0  0  0  0  0  0  0  0  0  0  0
  147.8303  142.4487  154.7611 H   0  0  0  0  0  0  0  0  0  0  0  0
  147.0004  140.2731  155.4618 H   0  0  0  0  0  0  0  0  0  0  0  0
  149.3644  140.3148  154.6748 H   0  0  0  0  0  0  0  0  0  0  0  0
  148.8435  139.9254  153.0376 H   0  0  0  0  0  0  0  0  0  0  0  0
  148.6283  138.7547  154.3371 H   0  0  0  0  0  0  0  0  0  0  0  0
  145.4496  140.2895  153.2229 H   0  0  0  0  0  0  0  0  0  0  0  0
  144.4807  138.8278  152.3454 H   0  0  0  0  0  0  0  0  0  0  0  0
  143.9151  133.4858  149.4106 H   0  0  0  0  0  0  0  0  0  0  0  0
  144.4051  131.9836  152.1141 H   0  0  0  0  0  0  0  0  0  0  0  0
  143.8604  131.2261  150.5299 H   0  0  0  0  0  0  0  0  0  0  0  0
  145.9735  132.0281  149.4303 H   0  0  0  0  0  0  0  0  0  0  0  0
  146.5044  132.7970  151.0150 H   0  0  0  0  0  0  0  0  0  0  0  0
  1  2  1  0  0  0  0
  1 18  1  0  0  0  0
  1 19  1  0  0  0  0
  1 20  1  0  0  0  0
  2  3  1  0  0  0  0
  3  4  1  0  0  0  0
  3 21  1  0  0  0  0
  3 22  1  0  0  0  0
  4  5  1  0  0  0  0
  4  6  1  0  0  0  0
  4 23  1  0  0  0  0
  5 24  1  0  0  0  0
  5 25  1  0  0  0  0
  5 26  1  0  0  0  0
  6  7  1  0  0  0  0
  6 27  1  0  0  0  0
  7  8  2  0  0  0  0
  7  9  1  0  0  0  0
  9 10  1  0  0  0  0
  9 28  1  0  0  0  0
 10 17  1  0  0  0  0
 10 11  2  0  0  0  0
 11 12  1  0  0  0  0
 12 13  2  0  0  0  0
 13 14  1  0  0  0  0
 13 17  1  0  0  0  0
 14 16  1  0  0  0  0
 14 15  1  0  0  0  0
 14 29  1  0  0  0  0
 15 16  1  0  0  0  0
 15 30  1  0  0  0  0
 15 31  1  0  0  0  0
 16 32  1  0  0  0  0
 16 33  1  0  0  0  0
M  END
> <s_m_source_file>
AV-unprocessed.smi

> <i_m_source_file_index>
1022

> <i_lp_mmshare_version>
43012

> <i_f3d_flags>
0

> <s_epik_input>
W0NIM11PW0NIMl1bQ0BIXShbQ0gzXSlbTkhdQyg9TylbTkhdYzFubmMoczEpW0NIXTJbQ0gyXVtDSDJdMg==

> <s_epik_cmdline>
J2VwaWtfcHl0aG9uJywgJy1waCcsICc3LjAnLCAnLXRuJywgJzgnLCAnLW1hJywgJzIwMCcsICctbWV0YWxfYmluZGluZycsICctaW1hZScsICc8aW5maWxlLm1hZT4nLCAnLW9tYWUnLCAnPG91dGZpbGUubWFlPic=

> <r_lp_tautomer_probability>
1

> <r_epik_Ionization_Penalty>
0.00129266

> <r_epik_Ionization_Penalty_Charging>
0

> <r_epik_Ionization_Penalty_Neutral>
0.00129266

> <r_epik_State_Penalty>
-0

> <r_epik_Charging_Adjusted_Penalty>
0

> <i_epik_Tot_Q>
0

> <i_epik_Tot_abs_Q>
0

> <r_epik_Metal_State_Penalty>
0.30857

> <b_epik_Metal_Only>
0

> <s_lp_Force_Field>
OPLS_2005

> <r_lp_Energy>
1.45425

> <b_lp_Chiralities_Consistent>
1

> <s_lp_Variant>
AV-unprocessed.smi:1022-1

> <Gold.Version>
5.8.1

> <Gold.Id.Protein>
6NUR|6NUR_protein|mol2

> <Gold.PLP.Fitness>
34.2715

> <Gold.PLP.PLP>
-30.2304

> <Gold.PLP.part.hbond>
-2.8032

> <Gold.PLP.part.metal>
0.0000

> <Gold.PLP.part.buried>
-4.8480

> <Gold.PLP.part.nonpolar>
-24.0086

> <Gold.PLP.part.repulsive>
0.9682

> <Gold.PLP.ligand.clash>
0.0001

> <Gold.PLP.ligand.torsion>
1.0519

> <Gold.PLP.Chemscore.Hbond>
2.0000

> <Gold.PLP.Chemscore.CHOScore>
0.0000

> <Gold.PLP.Chemscore.Metal>
0.0000

> <Gold.Chemscore.Hbonds>
donor molecule, donor type, donor heavy atom, donor atom, acceptor molecule, acceptor atom, score
      L1  H     6    27       P1 10175  1.00
      L1  H     9    28       P1 10175  1.00

> <Gold.PLP.Chemscore.Internal.Correction>
0.1450

> <Gold.Rescore>
     Score         DG    S(hbond)    S(metal)    S(lipo)     H(rot)  DE(clash)    DE(int)     intcor
     12.46     -14.80       1.97        0.00      61.29       1.73       0.01       2.34       ----

> <Gold.Chemscore.Fitness>
12.4556

> <Gold.Chemscore.DG>
-14.8026

> <Gold.Chemscore.ZeroCoef>
-5.4800

> <Gold.Chemscore.Hbond>
1.9714

> <Gold.Chemscore.Metal>
0.0000

> <Gold.Chemscore.Lipo>
61.2945

> <Gold.Chemscore.Internal_Hbond>
0.0000

> <Gold.Chemscore.DEClash>
0.0089

> <Gold.Chemscore.DEInternal>
2.3382

> <Gold.Chemscore.Rot>
1.7318

> <Gold.Chemscore.Internal.Correction>
   9.000000E+99

> <Gold.Chemscore.Hbonds>
donor molecule, donor type, donor heavy atom, donor atom, acceptor molecule, acceptor atom, score
      L1  H     6    27       P1 10175  0.94
      L1  H     9    28       P1 10175  0.99

> <Gold.Chemscore.Hbond.Weighted>
-6.5846

> <Gold.Chemscore.Metal.Weighted>
-0.0000

> <Gold.Chemscore.Lipo.Weighted>
-7.1715

> <Gold.Chemscore.Internal_Hbond.Weighted>
0.0000

> <Gold.Chemscore.DEClash.Weighted>
0.0089

> <Gold.Chemscore.DEInternal.Weighted>
2.3382

> <Gold.Chemscore.Rot.Weighted>
4.4335

> <Gold.Chemscore.Internal.Correction.Weighted>
   9.000000E+99

> <Gold.Protein.RotatedTorsions>
[ 6907 6896 6895 6894 ] final -136.81 input  -60.11 | X-H torsion
[ 7974 7965 7964 7962 ] final   41.91 input  175.53 | X-H torsion
[ 8008 7997 7996 7995 ] final  -99.75 input   59.86 | X-H torsion
[ 10167 10162 10161 10158 ] final -125.78 input  -65.29 | X-H torsion
[ 10718 10713 10712 10709 ] final  121.74 input   66.30 | X-H torsion
[ 10763 10752 10751 10750 ] final  102.11 input  -60.55 | X-H torsion
[ 11005 11000 10999 10996 ] final  -27.83 input  -57.11 | X-H torsion

> <Gold.Protein.ActiveResidues>
 VAL166  LYS551  ARG553  GLY616  TRP617  ASP618  TYR619  PRO620  LYS621  CYS622 
 ASP623  PHE694  ASN695  SER759  ASP760  ASP761  ALA762  ILE779  LEU786  VAL792 
 PHE793  MET794  SER795  GLU796  ALA797  LYS798  CYS799  TRP800  GLU811  SER814 

> <Gold.Protein.RotatedAtoms>
  151.0147  133.5932  159.2678 H   0  0  0  0  0  0  0  0  0  0  0  0  # atno 6907 bound_to 6896
  151.3071  135.0783  159.9269 H   0  0  0  0  0  0  0  0  0  0  0  0  # atno 6908 bound_to 6896
  152.5308  133.9818  159.7864 H   0  0  0  0  0  0  0  0  0  0  0  0  # atno 6909 bound_to 6896
  146.0784  139.5361  142.9553 H   0  0  0  0  0  0  0  0  0  0  0  0  # atno 7974 bound_to 7965
  154.8191  140.0445  157.1398 H   0  0  0  0  0  0  0  0  0  0  0  0  # atno 8008 bound_to 7997
  154.9280  140.3036  155.5162 H   0  0  0  0  0  0  0  0  0  0  0  0  # atno 8009 bound_to 7997
  156.2978  140.2328  156.4337 H   0  0  0  0  0  0  0  0  0  0  0  0  # atno 8010 bound_to 7997
  139.9784  143.5769  152.2387 H   0  0  0  0  0  0  0  0  0  0  0  0  # atno 10167 bound_to 10162
  157.5795  131.1076  150.8215 H   0  0  0  0  0  0  0  0  0  0  0  0  # atno 10718 bound_to 10713
  153.3353  135.4022  155.1528 H   0  0  0  0  0  0  0  0  0  0  0  0  # atno 10763 bound_to 10752
  154.8632  135.3620  154.5417 H   0  0  0  0  0  0  0  0  0  0  0  0  # atno 10764 bound_to 10752
  153.5858  135.7075  153.5503 H   0  0  0  0  0  0  0  0  0  0  0  0  # atno 10765 bound_to 10752
  140.9154  133.7433  156.0727 H   0  0  0  0  0  0  0  0  0  0  0  0  # atno 11005 bound_to 11000
  145.6263  141.0313  143.1887 LP  0  0  0  0  0  0  0  0  0  0  0  0  # atno 17320 bound_to 7965
  144.7277  139.7824  143.7359 LP  0  0  0  0  0  0  0  0  0  0  0  0  # atno 17321 bound_to 7965
  139.6428  144.7656  151.2304 LP  0  0  0  0  0  0  0  0  0  0  0  0  # atno 17342 bound_to 10162
  140.7498  143.6289  150.8442 LP  0  0  0  0  0  0  0  0  0  0  0  0  # atno 17343 bound_to 10162
  156.8665  130.5131  149.5300 LP  0  0  0  0  0  0  0  0  0  0  0  0  # atno 17370 bound_to 10713
  156.0840  130.5843  150.9614 LP  0  0  0  0  0  0  0  0  0  0  0  0  # atno 17371 bound_to 10713
  140.8057  134.3458  157.5427 LP  0  0  0  0  0  0  0  0  0  0  0  0  # atno 17394 bound_to 11000
  139.8765  134.9224  156.3299 LP  0  0  0  0  0  0  0  0  0  0  0  0  # atno 17395 bound_to 11000

$$$$
