AV-unprocessed.smi:2553|AV-procd|sdf|10017|dock1
  -GOLD-   2272014 63D 1   1.00000     0.00000
 Structure written by MMmdl.
 29 30  0  0  0  0  0  0  0  0  1 V2000
  146.5785  138.9717  153.2113 O   0  0  0  0  0  0  0  0  0  0  0  0
  147.5670  139.3924  153.8094 C   0  0  0  0  0  0  0  0  0  0  0  0
  148.7110  138.5947  153.9109 N   0  0  0  0  0  0  0  0  0  0  0  0
  149.8945  138.9504  154.5587 C   0  0  0  0  0  0  0  0  0  0  0  0
  150.8346  138.1567  154.5996 O   0  0  0  0  0  0  0  0  0  0  0  0
  149.9362  140.2348  155.1475 N   0  0  0  0  0  0  0  0  0  0  0  0
  151.1338  140.6186  155.8542 C   0  0  0  0  0  0  0  0  0  0  0  0
  151.5641  139.5764  156.8980 C   0  0  0  0  0  0  0  0  0  0  0  0
  152.7538  140.0402  157.5215 O   0  0  0  0  0  0  0  0  0  0  0  0
  152.6597  141.0261  158.4795 C   0  0  0  0  0  0  0  0  0  0  0  0
  151.6523  142.0240  158.4913 C   0  0  0  0  0  0  0  0  0  0  0  0
  151.6233  142.9956  159.5104 C   0  0  0  0  0  0  0  0  0  0  0  0
  152.5956  142.9828  160.5273 C   0  0  0  0  0  0  0  0  0  0  0  0
  152.5645  143.9165  161.5073 F   0  0  0  0  0  0  0  0  0  0  0  0
  153.5999  141.9979  160.5232 C   0  0  0  0  0  0  0  0  0  0  0  0
  153.6321  141.0256  159.5044 C   0  0  0  0  0  0  0  0  0  0  0  0
  154.8773  139.8278  159.5170 Cl  0  0  0  0  0  0  0  0  0  0  0  0
  148.8208  141.0555  155.0818 C   0  0  0  0  0  0  0  0  0  0  0  0
  147.6723  140.6990  154.4579 C   0  0  0  0  0  0  0  0  0  0  0  0
  146.3208  141.7742  154.4277 Cl  0  0  0  0  0  0  0  0  0  0  0  0
  148.6755  137.6806  153.4836 H   0  0  0  0  0  0  0  0  0  0  0  0
  151.9123  140.8137  155.1139 H   0  0  0  0  0  0  0  0  0  0  0  0
  150.9173  141.5779  156.3269 H   0  0  0  0  0  0  0  0  0  0  0  0
  150.7727  139.4245  157.6336 H   0  0  0  0  0  0  0  0  0  0  0  0
  151.7520  138.6226  156.4029 H   0  0  0  0  0  0  0  0  0  0  0  0
  150.8885  142.0652  157.7300 H   0  0  0  0  0  0  0  0  0  0  0  0
  150.8521  143.7517  159.5121 H   0  0  0  0  0  0  0  0  0  0  0  0
  154.3470  141.9887  161.3032 H   0  0  0  0  0  0  0  0  0  0  0  0
  148.8627  142.0251  155.5578 H   0  0  0  0  0  0  0  0  0  0  0  0
  1  2  2  0  0  0  0
  2 19  1  0  0  0  0
  2  3  1  0  0  0  0
  3 21  1  0  0  0  0
  3  4  1  0  0  0  0
  4  5  2  0  0  0  0
  4  6  1  0  0  0  0
  6  7  1  0  0  0  0
  6 18  1  0  0  0  0
  7  8  1  0  0  0  0
  7 22  1  0  0  0  0
  7 23  1  0  0  0  0
  8  9  1  0  0  0  0
  8 24  1  0  0  0  0
  8 25  1  0  0  0  0
  9 10  1  0  0  0  0
 10 16  1  0  0  0  0
 10 11  2  0  0  0  0
 11 12  1  0  0  0  0
 11 26  1  0  0  0  0
 12 13  2  0  0  0  0
 12 27  1  0  0  0  0
 13 14  1  0  0  0  0
 13 15  1  0  0  0  0
 15 16  2  0  0  0  0
 15 28  1  0  0  0  0
 16 17  1  0  0  0  0
 18 19  2  0  0  0  0
 18 29  1  0  0  0  0
 19 20  1  0  0  0  0
M  END
> <s_m_source_file>
AV-unprocessed.smi

> <i_m_source_file_index>
2553

> <i_lp_mmshare_version>
43012

> <i_f3d_flags>
0

> <s_epik_input>
Tz1jMVtuSF1jKD1PKW4oW2NIXWMxQ2wpW0NIMl1bQ0gyXU9jMltjSF1bY0hdYyhGKVtjSF1jMkNs

> <s_epik_cmdline>
J2VwaWtfcHl0aG9uJywgJy1waCcsICc3LjAnLCAnLXRuJywgJzgnLCAnLW1hJywgJzIwMCcsICctbWV0YWxfYmluZGluZycsICctaW1hZScsICc8aW5maWxlLm1hZT4nLCAnLW9tYWUnLCAnPG91dGZpbGUubWFlPic=

> <r_lp_tautomer_probability>
0.999537

> <r_epik_Ionization_Penalty>
0.0476949

> <r_epik_Ionization_Penalty_Charging>
0.0476949

> <r_epik_Ionization_Penalty_Neutral>
0

> <r_epik_State_Penalty>
0.0406325

> <r_epik_Charging_Adjusted_Penalty>
0.0883274

> <i_epik_Tot_Q>
0

> <i_epik_Tot_abs_Q>
0

> <r_epik_Metal_State_Penalty>
2.53375

> <b_epik_Metal_Only>
0

> <s_lp_Force_Field>
OPLS_2005

> <r_lp_Energy>
13.2328

> <b_lp_Chiralities_Consistent>
1

> <s_lp_Variant>
AV-unprocessed.smi:2553-1

> <Gold.Version>
5.8.1

> <Gold.Id.Protein>
6NUR|6NUR_protein|mol2

> <Gold.PLP.Fitness>
52.2952

> <Gold.PLP.PLP>
-44.9152

> <Gold.PLP.part.hbond>
-2.7697

> <Gold.PLP.part.metal>
0.0000

> <Gold.PLP.part.buried>
-2.8536

> <Gold.PLP.part.nonpolar>
-39.4251

> <Gold.PLP.part.repulsive>
0.5129

> <Gold.PLP.ligand.clash>
0.0000

> <Gold.PLP.ligand.torsion>
0.4967

> <Gold.PLP.Chemscore.Hbond>
1.7963

> <Gold.PLP.Chemscore.CHOScore>
0.9794

> <Gold.PLP.Chemscore.Metal>
0.0000

> <Gold.Chemscore.Hbonds>
donor molecule, donor type, donor heavy atom, donor atom, acceptor molecule, acceptor atom, score
      L1  H     3    21       P1  7948  0.63
      P1  H  7997  8008       L1     9  1.00
      L1  C    18    29       P1  8028  0.60

> <Gold.PLP.Chemscore.Internal.Correction>
0.0464

> <Gold.Rescore>
     Score         DG    S(hbond)    S(metal)    S(lipo)     H(rot)  DE(clash)    DE(int)     intcor
     15.33     -17.91       1.75        0.00      98.77       1.94       0.08       2.50       ----

> <Gold.Chemscore.Fitness>
15.3317

> <Gold.Chemscore.DG>
-17.9122

> <Gold.Chemscore.ZeroCoef>
-5.4800

> <Gold.Chemscore.Hbond>
1.7459

> <Gold.Chemscore.Metal>
0.0000

> <Gold.Chemscore.Lipo>
98.7671

> <Gold.Chemscore.Internal_Hbond>
0.0000

> <Gold.Chemscore.DEClash>
0.0800

> <Gold.Chemscore.DEInternal>
2.5005

> <Gold.Chemscore.Rot>
1.9355

> <Gold.Chemscore.Internal.Correction>
   9.000000E+99

> <Gold.Chemscore.Hbonds>
donor molecule, donor type, donor heavy atom, donor atom, acceptor molecule, acceptor atom, score
      L1  H     3    21       P1  7948  0.61
      P1  H  7997  8008       L1     9  0.73

> <Gold.Chemscore.Hbond.Weighted>
-5.8312

> <Gold.Chemscore.Metal.Weighted>
-0.0000

> <Gold.Chemscore.Lipo.Weighted>
-11.5558

> <Gold.Chemscore.Internal_Hbond.Weighted>
0.0000

> <Gold.Chemscore.DEClash.Weighted>
0.0800

> <Gold.Chemscore.DEInternal.Weighted>
2.5005

> <Gold.Chemscore.Rot.Weighted>
4.9548

> <Gold.Chemscore.Internal.Correction.Weighted>
   9.000000E+99

> <Gold.Protein.RotatedTorsions>
[ 6907 6896 6895 6894 ] final   41.69 input  -60.11 | X-H torsion
[ 7974 7965 7964 7962 ] final -102.95 input  175.53 | X-H torsion
[ 8008 7997 7996 7995 ] final  -65.67 input   59.86 | X-H torsion
[ 10167 10162 10161 10158 ] final  -40.44 input  -65.29 | X-H torsion
[ 10718 10713 10712 10709 ] final  172.62 input   66.30 | X-H torsion
[ 10763 10752 10751 10750 ] final  161.35 input  -60.55 | X-H torsion
[ 11005 11000 10999 10996 ] final  120.38 input  -57.11 | X-H torsion

> <Gold.Protein.ActiveResidues>
 VAL166  LYS551  ARG553  GLY616  TRP617  ASP618  TYR619  PRO620  LYS621  CYS622 
 ASP623  PHE694  ASN695  SER759  ASP760  ASP761  ALA762  ILE779  LEU786  VAL792 
 PHE793  MET794  SER795  GLU796  ALA797  LYS798  CYS799  TRP800  GLU811  SER814 

> <Gold.Protein.RotatedAtoms>
  152.1984  134.8609  160.0510 H   0  0  0  0  0  0  0  0  0  0  0  0  # atno 6907 bound_to 6896
  151.9472  133.3650  159.3995 H   0  0  0  0  0  0  0  0  0  0  0  0  # atno 6908 bound_to 6896
  150.6949  134.4302  159.5289 H   0  0  0  0  0  0  0  0  0  0  0  0  # atno 6909 bound_to 6896
  145.2622  140.9272  143.3034 H   0  0  0  0  0  0  0  0  0  0  0  0  # atno 7974 bound_to 7965
  154.4686  140.0928  156.7086 H   0  0  0  0  0  0  0  0  0  0  0  0  # atno 8008 bound_to 7997
  155.4787  140.3467  155.4318 H   0  0  0  0  0  0  0  0  0  0  0  0  # atno 8009 bound_to 7997
  156.1000  140.1419  156.9468 H   0  0  0  0  0  0  0  0  0  0  0  0  # atno 8010 bound_to 7997
  140.7034  143.3153  151.2925 H   0  0  0  0  0  0  0  0  0  0  0  0  # atno 10167 bound_to 10162
  156.9763  131.0105  151.2893 H   0  0  0  0  0  0  0  0  0  0  0  0  # atno 10718 bound_to 10713
  154.2616  135.2768  155.2775 H   0  0  0  0  0  0  0  0  0  0  0  0  # atno 10763 bound_to 10752
  154.5379  135.5711  153.6817 H   0  0  0  0  0  0  0  0  0  0  0  0  # atno 10764 bound_to 10752
  152.9961  135.6244  154.2767 H   0  0  0  0  0  0  0  0  0  0  0  0  # atno 10765 bound_to 10752
  139.9183  134.9634  156.7797 H   0  0  0  0  0  0  0  0  0  0  0  0  # atno 11005 bound_to 11000
  144.9408  139.4191  143.6449 LP  0  0  0  0  0  0  0  0  0  0  0  0  # atno 17320 bound_to 7965
  146.3272  139.8367  142.8898 LP  0  0  0  0  0  0  0  0  0  0  0  0  # atno 17321 bound_to 7965
  139.6589  144.0225  152.2679 LP  0  0  0  0  0  0  0  0  0  0  0  0  # atno 17342 bound_to 10162
  139.9785  144.6444  150.7922 LP  0  0  0  0  0  0  0  0  0  0  0  0  # atno 17343 bound_to 10162
  157.5558  130.8212  149.8202 LP  0  0  0  0  0  0  0  0  0  0  0  0  # atno 17370 bound_to 10713
  156.0262  130.3779  150.1816 LP  0  0  0  0  0  0  0  0  0  0  0  0  # atno 17371 bound_to 10713
  140.6554  133.9694  155.7776 LP  0  0  0  0  0  0  0  0  0  0  0  0  # atno 17394 bound_to 11000
  141.0680  134.0248  157.3567 LP  0  0  0  0  0  0  0  0  0  0  0  0  # atno 17395 bound_to 11000

$$$$
