AV-unprocessed.smi:2601|AV-procd|sdf|10183|dock7
  -GOLD-   2272014193D 1   1.00000     0.00000
 Structure written by MMmdl.
 47 48  0  0  0  0  0  0  0  0  1 V2000
  150.2087  145.2672  160.1536 C   0  0  0  0  0  0  0  0  0  0  0  0
  151.2817  144.2965  160.2578 N   0  0  0  0  0  0  0  0  0  0  0  0
  151.8759  144.1019  161.4548 N   0  0  0  0  0  0  0  0  0  0  0  0
  152.7893  143.1746  161.2281 C   0  0  0  0  0  0  0  0  0  0  0  0
  152.8081  142.7478  159.8721 C   0  0  0  0  0  0  0  0  0  0  0  0
  151.8272  143.4894  159.2738 C   0  0  0  0  0  0  0  0  0  0  0  0
  151.3579  143.4954  157.8485 C   0  0  0  0  0  0  0  0  0  0  0  0
  151.1071  142.0946  157.2560 C   0  0  0  0  0  0  0  0  0  0  0  0
  150.0827  142.0915  156.2157 N   0  0  0  0  0  0  0  0  0  0  0  0
  149.9957  141.2083  155.2074 C   0  0  0  0  0  0  0  0  0  0  0  0
  150.8085  140.2944  155.0631 O   0  0  0  0  0  0  0  0  0  0  0  0
  148.9317  141.3916  154.3873 N   0  0  0  0  0  0  0  0  0  0  0  0
  147.9862  142.5131  154.3888 C   0  0  0  0  0  0  0  0  0  0  0  0
  146.5921  142.0100  154.8281 C   0  0  0  0  0  0  0  0  0  0  0  0
  146.5245  141.7225  156.3413 C   0  0  0  0  0  0  0  0  0  0  0  0
  145.5331  143.0722  154.4900 C   0  0  0  0  0  0  0  0  0  0  0  0
  146.2053  140.8566  154.0606 O   0  0  0  0  0  0  0  0  0  0  0  0
  147.1537  139.8137  153.7735 C   0  0  0  0  0  0  0  0  0  0  0  0
  147.2669  138.8223  154.9501 C   0  0  0  0  0  0  0  0  0  0  0  0
  146.5546  139.0677  152.5701 C   0  0  0  0  0  0  0  0  0  0  0  0
  148.5218  140.4163  153.3783 C   0  0  0  0  0  0  0  0  0  0  0  0
  149.2845  144.7613  159.8736 H   0  0  0  0  0  0  0  0  0  0  0  0
  150.4535  146.0081  159.3924 H   0  0  0  0  0  0  0  0  0  0  0  0
  150.0574  145.7794  161.1049 H   0  0  0  0  0  0  0  0  0  0  0  0
  153.4093  142.8418  162.0474 H   0  0  0  0  0  0  0  0  0  0  0  0
  153.4457  142.0100  159.4081 H   0  0  0  0  0  0  0  0  0  0  0  0
  150.4387  144.0774  157.7818 H   0  0  0  0  0  0  0  0  0  0  0  0
  152.0746  144.0193  157.2169 H   0  0  0  0  0  0  0  0  0  0  0  0
  152.0268  141.7237  156.8032 H   0  0  0  0  0  0  0  0  0  0  0  0
  150.8446  141.3880  158.0445 H   0  0  0  0  0  0  0  0  0  0  0  0
  149.3738  142.8079  156.2746 H   0  0  0  0  0  0  0  0  0  0  0  0
  148.2969  143.3519  155.0122 H   0  0  0  0  0  0  0  0  0  0  0  0
  147.9351  142.9204  153.3777 H   0  0  0  0  0  0  0  0  0  0  0  0
  146.6025  142.6460  156.9153 H   0  0  0  0  0  0  0  0  0  0  0  0
  147.3320  141.0851  156.6879 H   0  0  0  0  0  0  0  0  0  0  0  0
  145.5818  141.2462  156.6120 H   0  0  0  0  0  0  0  0  0  0  0  0
  145.7355  144.0134  155.0022 H   0  0  0  0  0  0  0  0  0  0  0  0
  144.5358  142.7426  154.7833 H   0  0  0  0  0  0  0  0  0  0  0  0
  145.5068  143.2778  153.4194 H   0  0  0  0  0  0  0  0  0  0  0  0
  147.8120  137.9268  154.6504 H   0  0  0  0  0  0  0  0  0  0  0  0
  146.2824  138.5068  155.2962 H   0  0  0  0  0  0  0  0  0  0  0  0
  147.8042  139.2301  155.8006 H   0  0  0  0  0  0  0  0  0  0  0  0
  147.2006  138.2510  152.2459 H   0  0  0  0  0  0  0  0  0  0  0  0
  146.4146  139.7359  151.7198 H   0  0  0  0  0  0  0  0  0  0  0  0
  145.5808  138.6421  152.8146 H   0  0  0  0  0  0  0  0  0  0  0  0
  148.4510  140.9195  152.4126 H   0  0  0  0  0  0  0  0  0  0  0  0
  149.2558  139.6216  153.2363 H   0  0  0  0  0  0  0  0  0  0  0  0
  1  2  1  0  0  0  0
  1 22  1  0  0  0  0
  1 23  1  0  0  0  0
  1 24  1  0  0  0  0
  2  6  1  0  0  0  0
  2  3  1  0  0  0  0
  3  4  2  0  0  0  0
  4  5  1  0  0  0  0
  4 25  1  0  0  0  0
  5  6  2  0  0  0  0
  5 26  1  0  0  0  0
  6  7  1  0  0  0  0
  7  8  1  0  0  0  0
  7 27  1  0  0  0  0
  7 28  1  0  0  0  0
  8  9  1  0  0  0  0
  8 29  1  0  0  0  0
  8 30  1  0  0  0  0
  9 10  1  0  0  0  0
  9 31  1  0  0  0  0
 10 11  2  0  0  0  0
 10 12  1  0  0  0  0
 12 21  1  0  0  0  0
 12 13  1  0  0  0  0
 13 14  1  0  0  0  0
 13 32  1  0  0  0  0
 13 33  1  0  0  0  0
 14 15  1  0  0  0  0
 14 16  1  0  0  0  0
 14 17  1  0  0  0  0
 15 34  1  0  0  0  0
 15 35  1  0  0  0  0
 15 36  1  0  0  0  0
 16 37  1  0  0  0  0
 16 38  1  0  0  0  0
 16 39  1  0  0  0  0
 17 18  1  0  0  0  0
 18 19  1  0  0  0  0
 18 20  1  0  0  0  0
 18 21  1  0  0  0  0
 19 40  1  0  0  0  0
 19 41  1  0  0  0  0
 19 42  1  0  0  0  0
 20 43  1  0  0  0  0
 20 44  1  0  0  0  0
 20 45  1  0  0  0  0
 21 46  1  0  0  0  0
 21 47  1  0  0  0  0
M  END
> <s_m_source_file>
AV-unprocessed.smi

> <i_m_source_file_index>
2601

> <i_lp_mmshare_version>
43012

> <i_f3d_flags>
0

> <s_epik_input>
W0NIM11uMW5bY0hdW2NIXWMxW0NIMl1bQ0gyXVtOSF1DKD1PKU4oW0NIMl1DMihbQ0gzXSlbQ0gzXSlbQ0gyXUMoTzIpKFtDSDNdKVtDSDNd

> <s_epik_cmdline>
J2VwaWtfcHl0aG9uJywgJy1waCcsICc3LjAnLCAnLXRuJywgJzgnLCAnLW1hJywgJzIwMCcsICctbWV0YWxfYmluZGluZycsICctaW1hZScsICc8aW5maWxlLm1hZT4nLCAnLW9tYWUnLCAnPG91dGZpbGUubWFlPic=

> <r_lp_tautomer_probability>
1

> <r_epik_Ionization_Penalty>
0.00250606

> <r_epik_Ionization_Penalty_Charging>
0

> <r_epik_Ionization_Penalty_Neutral>
0.00250606

> <r_epik_State_Penalty>
0.0017149

> <r_epik_Charging_Adjusted_Penalty>
0.0017149

> <i_epik_Tot_Q>
0

> <i_epik_Tot_abs_Q>
0

> <r_epik_Metal_State_Penalty>
-0

> <b_epik_Metal_Only>
0

> <s_lp_Force_Field>
OPLS_2005

> <r_lp_Energy>
30.5553

> <b_lp_Chiralities_Consistent>
1

> <s_lp_Variant>
AV-unprocessed.smi:2601-1

> <Gold.Version>
5.8.1

> <Gold.Id.Protein>
6NUR|6NUR_protein|mol2

> <Gold.PLP.Fitness>
44.1488

> <Gold.PLP.PLP>
-39.8188

> <Gold.PLP.part.hbond>
-2.0000

> <Gold.PLP.part.metal>
0.0000

> <Gold.PLP.part.buried>
3.7120

> <Gold.PLP.part.nonpolar>
-42.2090

> <Gold.PLP.part.repulsive>
1.2461

> <Gold.PLP.ligand.clash>
0.0000

> <Gold.PLP.ligand.torsion>
0.5292

> <Gold.PLP.Chemscore.Hbond>
1.7945

> <Gold.PLP.Chemscore.CHOScore>
0.0000

> <Gold.PLP.Chemscore.Metal>
0.0000

> <Gold.Chemscore.Hbonds>
donor molecule, donor type, donor heavy atom, donor atom, acceptor molecule, acceptor atom, score
      L1  H     9    31       P1  8028  0.80
      P1  H  7989  7998       L1    11  0.95

> <Gold.PLP.Chemscore.Internal.Correction>
0.0049

> <Gold.Rescore>
     Score         DG    S(hbond)    S(metal)    S(lipo)     H(rot)  DE(clash)    DE(int)     intcor
     15.57     -19.79       1.48        0.00     109.17       1.33       3.64       0.58       ----

> <Gold.Chemscore.Fitness>
15.5689

> <Gold.Chemscore.DG>
-19.7932

> <Gold.Chemscore.ZeroCoef>
-5.4800

> <Gold.Chemscore.Hbond>
1.4808

> <Gold.Chemscore.Metal>
0.0000

> <Gold.Chemscore.Lipo>
109.1689

> <Gold.Chemscore.Internal_Hbond>
0.0000

> <Gold.Chemscore.DEClash>
3.6436

> <Gold.Chemscore.DEInternal>
0.5808

> <Gold.Chemscore.Rot>
1.3303

> <Gold.Chemscore.Internal.Correction>
   9.000000E+99

> <Gold.Chemscore.Hbonds>
donor molecule, donor type, donor heavy atom, donor atom, acceptor molecule, acceptor atom, score
      L1  H     9    31       P1  8028  0.75
      P1  H  7989  7998       L1    11  0.21

> <Gold.Chemscore.Hbond.Weighted>
-4.9459

> <Gold.Chemscore.Metal.Weighted>
-0.0000

> <Gold.Chemscore.Lipo.Weighted>
-12.7728

> <Gold.Chemscore.Internal_Hbond.Weighted>
0.0000

> <Gold.Chemscore.DEClash.Weighted>
3.6436

> <Gold.Chemscore.DEInternal.Weighted>
0.5808

> <Gold.Chemscore.Rot.Weighted>
3.4055

> <Gold.Chemscore.Internal.Correction.Weighted>
   9.000000E+99

> <Gold.Protein.RotatedTorsions>
[ 6907 6896 6895 6894 ] final -160.95 input  -60.11 | X-H torsion
[ 7974 7965 7964 7962 ] final -162.99 input  175.53 | X-H torsion
[ 8008 7997 7996 7995 ] final  -19.54 input   59.86 | X-H torsion
[ 10167 10162 10161 10158 ] final   57.64 input  -65.29 | X-H torsion
[ 10718 10713 10712 10709 ] final  -25.97 input   66.30 | X-H torsion
[ 10763 10752 10751 10750 ] final  -32.60 input  -60.55 | X-H torsion
[ 11005 11000 10999 10996 ] final   68.21 input  -57.11 | X-H torsion

> <Gold.Protein.ActiveResidues>
 VAL166  LYS551  ARG553  GLY616  TRP617  ASP618  TYR619  PRO620  LYS621  CYS622 
 ASP623  PHE694  ASN695  SER759  ASP760  ASP761  ALA762  ILE779  LEU786  VAL792 
 PHE793  MET794  SER795  GLU796  ALA797  LYS798  CYS799  TRP800  GLU811  SER814 

> <Gold.Protein.RotatedAtoms>
  151.3571  133.3903  159.2685 H   0  0  0  0  0  0  0  0  0  0  0  0  # atno 6907 bound_to 6896
  150.9755  134.9121  159.7824 H   0  0  0  0  0  0  0  0  0  0  0  0  # atno 6908 bound_to 6896
  152.5199  134.3534  159.9311 H   0  0  0  0  0  0  0  0  0  0  0  0  # atno 6909 bound_to 6896
  144.7340  140.3172  143.6177 H   0  0  0  0  0  0  0  0  0  0  0  0  # atno 7974 bound_to 7965
  154.4830  140.2086  155.9720 H   0  0  0  0  0  0  0  0  0  0  0  0  # atno 8008 bound_to 7997
  156.1193  140.3216  155.8155 H   0  0  0  0  0  0  0  0  0  0  0  0  # atno 8009 bound_to 7997
  155.4496  140.0516  157.2993 H   0  0  0  0  0  0  0  0  0  0  0  0  # atno 8010 bound_to 7997
  140.1958  144.4039  150.6551 H   0  0  0  0  0  0  0  0  0  0  0  0  # atno 10167 bound_to 10162
  156.4573  130.4496  149.6951 H   0  0  0  0  0  0  0  0  0  0  0  0  # atno 10718 bound_to 10713
  153.8164  135.6878  153.4833 H   0  0  0  0  0  0  0  0  0  0  0  0  # atno 10763 bound_to 10752
  153.1596  135.4585  154.9752 H   0  0  0  0  0  0  0  0  0  0  0  0  # atno 10764 bound_to 10752
  154.7946  135.3314  154.7640 H   0  0  0  0  0  0  0  0  0  0  0  0  # atno 10765 bound_to 10752
  139.9725  134.6877  156.0419 H   0  0  0  0  0  0  0  0  0  0  0  0  # atno 11005 bound_to 11000
  145.7606  139.1823  143.2269 LP  0  0  0  0  0  0  0  0  0  0  0  0  # atno 17320 bound_to 7965
  146.0990  140.7567  142.9558 LP  0  0  0  0  0  0  0  0  0  0  0  0  # atno 17321 bound_to 7965
  140.6425  143.2206  151.6259 LP  0  0  0  0  0  0  0  0  0  0  0  0  # atno 17342 bound_to 10162
  139.5237  144.3125  152.0981 LP  0  0  0  0  0  0  0  0  0  0  0  0  # atno 17343 bound_to 10162
  156.3753  130.7551  151.2539 LP  0  0  0  0  0  0  0  0  0  0  0  0  # atno 17370 bound_to 10713
  157.7500  131.0311  150.4168 LP  0  0  0  0  0  0  0  0  0  0  0  0  # atno 17371 bound_to 10713
  141.1404  133.6566  156.3713 LP  0  0  0  0  0  0  0  0  0  0  0  0  # atno 17394 bound_to 11000
  140.5263  134.6255  157.5335 LP  0  0  0  0  0  0  0  0  0  0  0  0  # atno 17395 bound_to 11000

$$$$
