AV-unprocessed.smi:1254|AV-procd|sdf|5271|dock1
  -GOLD-   22720 4383D 1   1.00000     0.00000
 Structure written by MMmdl.
 46 47  0  0  0  0  0  0  0  0  2 V2000
  151.1250  141.9392  157.4141 C   0  0  0  0  0  0  0  0  0  0  0  0
  150.9201  140.9460  156.3224 C   0  0  0  0  0  0  0  0  0  0  0  0
  149.8276  140.5868  155.5840 C   0  0  0  0  0  0  0  0  0  0  0  0
  150.3405  139.5789  154.7245 C   0  0  0  0  0  0  0  0  0  0  0  0
  149.5029  138.9288  153.7827 N   0  0  0  0  0  0  0  0  0  0  0  0
  148.1940  139.1434  153.5674 C   0  0  0  0  0  0  0  0  0  0  0  0
  147.4941  139.9472  154.1845 O   0  0  0  0  0  0  0  0  0  0  0  0
  147.7281  138.3697  152.5766 N   0  0  0  0  0  0  0  0  0  0  0  0
  146.3522  138.3750  152.0911 C   0  0  0  0  0  0  0  0  0  0  0  0
  145.6762  137.0032  152.2672 C   0  0  2  0  0  0  0  0  0  0  0  0
  144.9455  136.5522  150.9858 C   0  0  0  0  0  0  0  0  0  0  0  0
  144.2485  135.2587  151.1913 N   0  3  1  0  0  0  0  0  0  0  0  0
  145.1587  134.0817  151.1708 C   0  0  0  0  0  0  0  0  0  0  0  0
  144.4068  132.7402  151.0336 C   0  0  0  0  0  0  0  0  0  0  0  0
  145.2608  131.5866  151.5806 C   0  0  0  0  0  0  0  0  0  0  0  0
  143.9958  132.4592  149.5786 C   0  0  0  0  0  0  0  0  0  0  0  0
  143.3559  135.3344  152.3763 C   0  0  0  0  0  0  0  0  0  0  0  0
  144.1051  135.8584  153.6169 C   0  0  0  0  0  0  0  0  0  0  0  0
  144.7193  137.1056  153.3173 O   0  0  0  0  0  0  0  0  0  0  0  0
  151.6290  139.3446  154.9198 N   0  0  0  0  0  0  0  0  0  0  0  0
  152.0072  140.2201  155.9445 O   0  0  0  0  0  0  0  0  0  0  0  0
  150.1958  142.4592  157.6479 H   0  0  0  0  0  0  0  0  0  0  0  0
  151.8658  142.6845  157.1244 H   0  0  0  0  0  0  0  0  0  0  0  0
  151.4750  141.4485  158.3224 H   0  0  0  0  0  0  0  0  0  0  0  0
  148.8250  140.9822  155.6522 H   0  0  0  0  0  0  0  0  0  0  0  0
  149.9517  138.2348  153.2037 H   0  0  0  0  0  0  0  0  0  0  0  0
  148.3698  137.7374  152.1207 H   0  0  0  0  0  0  0  0  0  0  0  0
  145.7977  139.1400  152.6351 H   0  0  0  0  0  0  0  0  0  0  0  0
  146.3397  138.6717  151.0410 H   0  0  0  0  0  0  0  0  0  0  0  0
  146.4325  136.2633  152.5340 H   0  0  0  0  0  0  0  0  0  0  0  0
  144.2032  137.3013  150.7067 H   0  0  0  0  0  0  0  0  0  0  0  0
  145.6378  136.4822  150.1458 H   0  0  0  0  0  0  0  0  0  0  0  0
  145.8472  134.1700  150.3291 H   0  0  0  0  0  0  0  0  0  0  0  0
  145.7817  134.0778  152.0652 H   0  0  0  0  0  0  0  0  0  0  0  0
  143.5003  132.7732  151.6371 H   0  0  0  0  0  0  0  0  0  0  0  0
  146.1906  131.4802  151.0204 H   0  0  0  0  0  0  0  0  0  0  0  0
  144.7266  130.6380  151.5212 H   0  0  0  0  0  0  0  0  0  0  0  0
  145.5206  131.7503  152.6269 H   0  0  0  0  0  0  0  0  0  0  0  0
  144.8655  132.4116  148.9224 H   0  0  0  0  0  0  0  0  0  0  0  0
  143.3302  133.2322  149.1940 H   0  0  0  0  0  0  0  0  0  0  0  0
  143.4677  131.5086  149.4977 H   0  0  0  0  0  0  0  0  0  0  0  0
  142.5392  136.0178  152.1396 H   0  0  0  0  0  0  0  0  0  0  0  0
  142.8920  134.3717  152.5865 H   0  0  0  0  0  0  0  0  0  0  0  0
  143.4053  136.0028  154.4399 H   0  0  0  0  0  0  0  0  0  0  0  0
  144.8531  135.1454  153.9654 H   0  0  0  0  0  0  0  0  0  0  0  0
  143.6507  135.1388  150.3858 H   0  0  0  0  0  0  0  0  0  0  0  0
  1  2  1  0  0  0  0
  1 22  1  0  0  0  0
  1 23  1  0  0  0  0
  1 24  1  0  0  0  0
  2 21  1  0  0  0  0
  2  3  2  0  0  0  0
  3  4  1  0  0  0  0
  3 25  1  0  0  0  0
  4  5  1  0  0  0  0
  4 20  2  0  0  0  0
  5  6  1  0  0  0  0
  5 26  1  0  0  0  0
  6  7  2  0  0  0  0
  6  8  1  0  0  0  0
  8  9  1  0  0  0  0
  8 27  1  0  0  0  0
  9 10  1  0  0  0  0
  9 28  1  0  0  0  0
  9 29  1  0  0  0  0
 10 19  1  0  0  0  0
 10 11  1  0  0  0  0
 10 30  1  0  0  0  0
 11 12  1  0  0  0  0
 11 31  1  0  0  0  0
 11 32  1  0  0  0  0
 12 13  1  0  0  0  0
 12 17  1  0  0  0  0
 12 46  1  0  0  0  0
 13 14  1  0  0  0  0
 13 33  1  0  0  0  0
 13 34  1  0  0  0  0
 14 15  1  0  0  0  0
 14 16  1  0  0  0  0
 14 35  1  0  0  0  0
 15 36  1  0  0  0  0
 15 37  1  0  0  0  0
 15 38  1  0  0  0  0
 16 39  1  0  0  0  0
 16 40  1  0  0  0  0
 16 41  1  0  0  0  0
 17 18  1  0  0  0  0
 17 42  1  0  0  0  0
 17 43  1  0  0  0  0
 18 19  1  0  0  0  0
 18 44  1  0  0  0  0
 18 45  1  0  0  0  0
 20 21  1  0  0  0  0
M  CHG  1  12   1
M  END
> <s_m_source_file>
AV-unprocessed.smi

> <i_m_source_file_index>
1254

> <i_lp_mmshare_version>
43012

> <i_f3d_flags>
0

> <s_epik_input>
W0NIM11jMVtjSF1jKG5vMSlbTkhdQyg9TylbTkhdW0NIMl1bQ0BASF0yW0NIMl1OKFtDSDJdW0NIMl1PMilbQ0gyXVtDSF0oW0NIM10pW0NIM10=

> <s_epik_cmdline>
J2VwaWtfcHl0aG9uJywgJy1waCcsICc3LjAnLCAnLXRuJywgJzgnLCAnLW1hJywgJzIwMCcsICctbWV0YWxfYmluZGluZycsICctaW1hZScsICc8aW5maWxlLm1hZT4nLCAnLW9tYWUnLCAnPG91dGZpbGUubWFlPic=

> <r_epik_Ionization_Penalty>
0.0986825

> <r_epik_Ionization_Penalty_Charging>
0.0986478

> <r_epik_Ionization_Penalty_Neutral>
3.46838e-05

> <r_epik_State_Penalty>
0.0887259

> <r_epik_Charging_Adjusted_Penalty>
0.187374

> <i_epik_Tot_Q>
1

> <i_epik_Tot_abs_Q>
1

> <r_epik_Metal_State_Penalty>
0.103424

> <b_epik_Metal_Only>
0

> <s_lp_Force_Field>
OPLS_2005

> <r_lp_Energy>
16.7856

> <b_lp_Chiralities_Consistent>
1

> <s_lp_Variant>
AV-unprocessed.smi:1254-3

> <Gold.Version>
5.8.1

> <Gold.Id.Protein>
6NUR|6NUR_protein|mol2

> <Gold.PLP.Fitness>
37.7935

> <Gold.PLP.PLP>
-35.0895

> <Gold.PLP.part.hbond>
-5.2013

> <Gold.PLP.part.metal>
0.0000

> <Gold.PLP.part.buried>
1.0193

> <Gold.PLP.part.nonpolar>
-31.7226

> <Gold.PLP.part.repulsive>
0.5487

> <Gold.PLP.ligand.clash>
0.0000

> <Gold.PLP.ligand.torsion>
0.9457

> <Gold.PLP.Chemscore.Hbond>
1.5038

> <Gold.PLP.Chemscore.CHOScore>
0.0000

> <Gold.PLP.Chemscore.Metal>
0.0000

> <Gold.Chemscore.Hbonds>
donor molecule, donor type, donor heavy atom, donor atom, acceptor molecule, acceptor atom, score
      L1  H     8    27       P1  7948  1.00
      P1  H  7997  8008       L1    21  0.19

> <Gold.PLP.Chemscore.Internal.Correction>
0.0842

> <Gold.Rescore>
     Score         DG    S(hbond)    S(metal)    S(lipo)     H(rot)  DE(clash)    DE(int)     intcor
     10.28     -14.02       0.94        0.00      83.85       1.73       1.57       2.17       ----

> <Gold.Chemscore.Fitness>
10.2769

> <Gold.Chemscore.DG>
-14.0174

> <Gold.Chemscore.ZeroCoef>
-5.4800

> <Gold.Chemscore.Hbond>
0.9440

> <Gold.Chemscore.Metal>
0.0000

> <Gold.Chemscore.Lipo>
83.8526

> <Gold.Chemscore.Internal_Hbond>
0.0000

> <Gold.Chemscore.DEClash>
1.5681

> <Gold.Chemscore.DEInternal>
2.1724

> <Gold.Chemscore.Rot>
1.7291

> <Gold.Chemscore.Internal.Correction>
   9.000000E+99

> <Gold.Chemscore.Hbonds>
donor molecule, donor type, donor heavy atom, donor atom, acceptor molecule, acceptor atom, score
      L1  H     8    27       P1  7948  0.96
      P1  H  7997  8008       L1    21  0.15

> <Gold.Chemscore.Hbond.Weighted>
-3.1531

> <Gold.Chemscore.Metal.Weighted>
-0.0000

> <Gold.Chemscore.Lipo.Weighted>
-9.8108

> <Gold.Chemscore.Internal_Hbond.Weighted>
0.0000

> <Gold.Chemscore.DEClash.Weighted>
1.5681

> <Gold.Chemscore.DEInternal.Weighted>
2.1724

> <Gold.Chemscore.Rot.Weighted>
4.4265

> <Gold.Chemscore.Internal.Correction.Weighted>
   9.000000E+99

> <Gold.Protein.RotatedTorsions>
[ 6907 6896 6895 6894 ] final  -99.24 input  -60.11 | X-H torsion
[ 7974 7965 7964 7962 ] final  -92.20 input  175.53 | X-H torsion
[ 8008 7997 7996 7995 ] final  -32.75 input   59.86 | X-H torsion
[ 10167 10162 10161 10158 ] final  130.51 input  -65.29 | X-H torsion
[ 10718 10713 10712 10709 ] final  -88.21 input   66.30 | X-H torsion
[ 10763 10752 10751 10750 ] final  126.41 input  -60.55 | X-H torsion
[ 11005 11000 10999 10996 ] final  121.18 input  -57.11 | X-H torsion

> <Gold.Protein.ActiveResidues>
 VAL166  LYS551  ARG553  GLY616  TRP617  ASP618  TYR619  PRO620  LYS621  CYS622 
 ASP623  PHE694  ASN695  SER759  ASP760  ASP761  ALA762  ILE779  LEU786  VAL792 
 PHE793  MET794  SER795  GLU796  ALA797  LYS798  CYS799  TRP800  GLU811  SER814 

> <Gold.Protein.RotatedAtoms>
  150.7073  134.1071  159.3986 H   0  0  0  0  0  0  0  0  0  0  0  0  # atno 6907 bound_to 6896
  151.9057  135.0357  160.0519 H   0  0  0  0  0  0  0  0  0  0  0  0  # atno 6908 bound_to 6896
  152.2377  133.5074  159.5289 H   0  0  0  0  0  0  0  0  0  0  0  0  # atno 6909 bound_to 6896
  145.4030  140.9539  143.2277 H   0  0  0  0  0  0  0  0  0  0  0  0  # atno 7974 bound_to 7965
  154.4170  140.1729  156.1777 H   0  0  0  0  0  0  0  0  0  0  0  0  # atno 8008 bound_to 7997
  155.9708  140.3386  155.6550 H   0  0  0  0  0  0  0  0  0  0  0  0  # atno 8009 bound_to 7997
  155.6628  140.0703  157.2538 H   0  0  0  0  0  0  0  0  0  0  0  0  # atno 8010 bound_to 7997
  139.5426  144.6745  151.4574 H   0  0  0  0  0  0  0  0  0  0  0  0  # atno 10167 bound_to 10162
  155.9984  130.4827  150.4984 H   0  0  0  0  0  0  0  0  0  0  0  0  # atno 10718 bound_to 10713
  153.6930  135.3296  155.3206 H   0  0  0  0  0  0  0  0  0  0  0  0  # atno 10763 bound_to 10752
  154.8435  135.4436  154.1489 H   0  0  0  0  0  0  0  0  0  0  0  0  # atno 10764 bound_to 10752
  153.2536  135.6984  153.7731 H   0  0  0  0  0  0  0  0  0  0  0  0  # atno 10765 bound_to 10752
  139.9215  134.9638  156.7919 H   0  0  0  0  0  0  0  0  0  0  0  0  # atno 11005 bound_to 11000
  144.8361  139.5548  143.6921 LP  0  0  0  0  0  0  0  0  0  0  0  0  # atno 17320 bound_to 7965
  146.2742  139.6712  142.9274 LP  0  0  0  0  0  0  0  0  0  0  0  0  # atno 17321 bound_to 7965
  140.6663  143.8391  150.6945 LP  0  0  0  0  0  0  0  0  0  0  0  0  # atno 17342 bound_to 10162
  140.1802  143.4121  152.1939 LP  0  0  0  0  0  0  0  0  0  0  0  0  # atno 17343 bound_to 10162
  157.2972  131.0638  151.2093 LP  0  0  0  0  0  0  0  0  0  0  0  0  # atno 17370 bound_to 10713
  157.3086  130.6878  149.6203 LP  0  0  0  0  0  0  0  0  0  0  0  0  # atno 17371 bound_to 10713
  140.6460  133.9775  155.7731 LP  0  0  0  0  0  0  0  0  0  0  0  0  # atno 17394 bound_to 11000
  141.0740  134.0163  157.3485 LP  0  0  0  0  0  0  0  0  0  0  0  0  # atno 17395 bound_to 11000

$$$$
