#       Name:                AV-unprocessed.smi:2252
#       Creating user name   scv26
#       Creation time:       Fri Mar 27 12:30:53 2020


#       File generated by GOLD software.
#

@<TRIPOS>MOLECULE
AV-unprocessed.smi:2252
    48    50     1
SMALL
NO_CHARGES


@<TRIPOS>ATOM
      1 ****        -1.6718   3.3471   0.7529 C.3            1 S1                 0.0000
      2 ****        -2.1010   2.5184   1.8630 N.pl3          1 S1                 0.0000
      3 ****        -1.6958   2.6587   3.1839 C.2            1 S1                 0.0000
      4 ****        -2.3319   1.6731   3.8986 C.2            1 S1                 0.0000
      5 ****        -3.1281   0.9230   3.0403 N.2            1 S1                 0.0000
      6 ****        -2.9519   1.4729   1.8428 C.2            1 S1                 0.0000
      7 ****        -3.6186   0.9672   0.5965 C.3            1 S1                 0.0000
      8 ****        -2.9863  -0.3211   0.0436 C.3            1 S1                 0.0000
      9 ****        -1.5563  -0.1580  -0.1912 N.am           1 S1                 0.0000
     10 ****        -0.6751  -1.1641  -0.2852 C.2            1 S1                 0.0000
     11 ****        -0.9943  -2.3511  -0.2076 O.2            1 S1                 0.0000
     12 ****         0.7985  -0.7690  -0.4714 C.3            1 S1                 0.0000
     13 ****         1.4669  -0.7029   0.9197 C.3            1 S1                 0.0000
     14 ****         1.1139   0.3968   1.8994 C.3            1 S1                 0.0000
     15 ****         2.4781   0.3706   1.2617 C.3            1 S1                 0.0000
     16 ****         1.5184  -1.7111  -1.3759 N.4            1 S1                 1.0000
     17 ****         0.9887  -1.8006  -2.7544 C.3            1 S1                 0.0000
     18 ****         2.1051  -2.4587  -3.5565 C.3            1 S1                 0.0000
     19 ****         3.3763  -1.8899  -2.9319 C.3            1 S1                 0.0000
     20 ****         2.9779  -1.4800  -1.5061 C.3            1 S1                 0.0000
     21 ****        -0.9143   4.0576   1.0854 H              1 S1                 0.0000
     22 ****        -2.5229   3.9002   0.3551 H              1 S1                 0.0000
     23 ****        -1.2458   2.7246  -0.0337 H              1 S1                 0.0000
     24 ****        -1.0049   3.4270   3.4990 H              1 S1                 0.0000
     25 ****        -2.2788   1.4480   4.9537 H              1 S1                 0.0000
     26 ****        -4.6703   0.7860   0.8205 H              1 S1                 0.0000
     27 ****        -3.6081   1.7422  -0.1697 H              1 S1                 0.0000
     28 ****        -3.1518  -1.1321   0.7553 H              1 S1                 0.0000
     29 ****        -3.4750  -0.6106  -0.8872 H              1 S1                 0.0000
     30 ****        -1.2101   0.7885  -0.2550 H              1 S1                 0.0000
     31 ****         0.8318   0.2225  -0.9277 H              1 S1                 0.0000
     32 ****         1.6394  -1.6806   1.3672 H              1 S1                 0.0000
     33 ****         0.4301   1.1753   1.5699 H              1 S1                 0.0000
     34 ****         1.0419   0.1287   2.9514 H              1 S1                 0.0000
     35 ****         3.3209   0.0844   1.8875 H              1 S1                 0.0000
     36 ****         2.6909   1.1312   0.5131 H              1 S1                 0.0000
     37 ****         0.0601  -2.3699  -2.8061 H              1 S1                 0.0000
     38 ****         0.7955  -0.7987  -3.1415 H              1 S1                 0.0000
     39 ****         2.0748  -3.5395  -3.4119 H              1 S1                 0.0000
     40 ****         2.0320  -2.2611  -4.6264 H              1 S1                 0.0000
     41 ****         4.1938  -2.6115  -2.9435 H              1 S1                 0.0000
     42 ****         3.7044  -1.0120  -3.4900 H              1 S1                 0.0000
     43 ****         3.2221  -0.4277  -1.3561 H              1 S1                 0.0000
     44 ****         3.5138  -2.0587  -0.7530 H              1 S1                 0.0000
     45 ****         1.4158  -2.6347  -0.9794 H              1 S1                 0.0000
     46 ****        -3.7065   0.1411   3.2728 LP             1 S1                 0.0000
     47 ****        -1.9518  -2.6033  -0.0677 LP             1 S1                 0.0000
     48 ****        -0.2959  -3.0627  -0.2845 LP             1 S1                 0.0000
@<TRIPOS>BOND
    1    1    2 1     
    2    1   21 1     
    3    1   22 1     
    4    1   23 1     
    5    2    6 1     
    6    2    3 1     
    7    3    4 2     
    8    3   24 1     
    9    4    5 1     
   10    4   25 1     
   11    5    6 2     
   12    6    7 1     
   13    7    8 1     
   14    7   26 1     
   15    7   27 1     
   16    8    9 1     
   17    8   28 1     
   18    8   29 1     
   19    9   10 am    
   20    9   30 1     
   21   10   11 2     
   22   10   12 1     
   23   12   13 1     
   24   12   16 1     
   25   12   31 1     
   26   13   15 1     
   27   13   14 1     
   28   13   32 1     
   29   14   15 1     
   30   14   33 1     
   31   14   34 1     
   32   15   35 1     
   33   15   36 1     
   34   16   20 1     
   35   16   17 1     
   36   16   45 1     
   37   17   18 1     
   38   17   37 1     
   39   17   38 1     
   40   18   19 1     
   41   18   39 1     
   42   18   40 1     
   43   19   20 1     
   44   19   41 1     
   45   19   42 1     
   46   20   43 1     
   47   20   44 1     
   48    5   46 1     
   49   11   47 1     
   50   11   48 1     
@<TRIPOS>SUBSTRUCTURE
      1 S1             1
@<TRIPOS>SET
LONE_PAIRS      STATIC     ATOMS    <user>   **** ""
3 46 47 48
DONOR_HYDROGENS      STATIC     ATOMS    <user>   **** ""
2 30 45
ATOM$BLUE        STATIC     ATOMS    COLORGROUP SYSTEM
3 46 47 48
ATOM$RED        STATIC     ATOMS    COLORGROUP SYSTEM
2 30 45
