AV-unprocessed.smi:111|AV-procd|sdf|1082|dock2
  -GOLD-   2262018173D 1   1.00000     0.00000
 Structure written by MMmdl.
 46 48  0  0  0  0  0  0  0  0  1 V2000
  155.5568  140.0403  162.8847 O   0  0  0  0  0  0  0  0  0  0  0  0
  155.5180  138.8094  162.8428 C   0  0  0  0  0  0  0  0  0  0  0  0
  156.1192  137.9531  163.8575 C   0  0  0  0  0  0  0  0  0  0  0  0
  156.7042  138.5074  164.9329 F   0  0  0  0  0  0  0  0  0  0  0  0
  156.0845  136.6079  163.7449 C   0  0  0  0  0  0  0  0  0  0  0  0
  155.5115  135.9491  162.6686 N   0  0  0  0  0  0  0  0  0  0  0  0
  155.4161  134.4375  162.6201 C   0  0  1  0  0  0  0  0  0  0  0  0
  155.9294  133.8141  161.3100 C   0  0  0  0  0  0  0  0  0  0  0  0
  157.2651  133.2314  161.7295 C   0  0  0  0  0  0  0  0  0  0  0  0
  156.9986  132.8699  163.1856 C   0  0  0  0  0  0  0  0  0  0  0  0
  156.1903  133.9353  163.6684 O   0  0  0  0  0  0  0  0  0  0  0  0
  154.8345  136.7004  161.6800 C   0  0  0  0  0  0  0  0  0  0  0  0
  154.2483  136.1393  160.7512 O   0  0  0  0  0  0  0  0  0  0  0  0
  154.8751  138.1126  161.7915 N   0  0  0  0  0  0  0  0  0  0  0  0
  154.2323  138.9151  160.7582 C   0  0  0  0  0  0  0  0  0  0  0  0
  155.1831  139.7691  159.8770 C   0  0  1  0  0  0  0  0  0  0  0  0
  155.6803  138.9607  158.8292 O   0  0  0  0  0  0  0  0  0  0  0  0
  154.5987  141.0806  159.3101 C   0  0  0  0  0  0  0  0  0  0  0  0
  154.1246  142.0603  160.3957 C   0  0  0  0  0  0  0  0  0  0  0  0
  153.5575  143.3353  159.8013 C   0  0  0  0  0  0  0  0  0  0  0  0
  153.5286  143.5119  158.4019 C   0  0  0  0  0  0  0  0  0  0  0  0
  152.9967  144.6928  157.8483 C   0  0  0  0  0  0  0  0  0  0  0  0
  152.4911  145.7009  158.6919 C   0  0  0  0  0  0  0  0  0  0  0  0
  152.5169  145.5275  160.0895 C   0  0  0  0  0  0  0  0  0  0  0  0
  153.0486  144.3465  160.6437 C   0  0  0  0  0  0  0  0  0  0  0  0
  156.5262  136.0388  164.5470 H   0  0  0  0  0  0  0  0  0  0  0  0
  154.3624  134.1935  162.7636 H   0  0  0  0  0  0  0  0  0  0  0  0
  155.2490  133.0091  161.0296 H   0  0  0  0  0  0  0  0  0  0  0  0
  155.9725  134.5187  160.4797 H   0  0  0  0  0  0  0  0  0  0  0  0
  157.5651  132.3739  161.1265 H   0  0  0  0  0  0  0  0  0  0  0  0
  158.0524  133.9828  161.6683 H   0  0  0  0  0  0  0  0  0  0  0  0
  156.4378  131.9365  163.2529 H   0  0  0  0  0  0  0  0  0  0  0  0
  157.9131  132.7635  163.7693 H   0  0  0  0  0  0  0  0  0  0  0  0
  153.6570  138.2364  160.1280 H   0  0  0  0  0  0  0  0  0  0  0  0
  153.4631  139.5188  161.2452 H   0  0  0  0  0  0  0  0  0  0  0  0
  156.0500  140.0204  160.4892 H   0  0  0  0  0  0  0  0  0  0  0  0
  156.6193  138.8966  158.9193 H   0  0  0  0  0  0  0  0  0  0  0  0
  155.3316  141.5744  158.6706 H   0  0  0  0  0  0  0  0  0  0  0  0
  153.7446  140.8413  158.6762 H   0  0  0  0  0  0  0  0  0  0  0  0
  153.3651  141.5879  161.0202 H   0  0  0  0  0  0  0  0  0  0  0  0
  154.9501  142.3199  161.0596 H   0  0  0  0  0  0  0  0  0  0  0  0
  153.9121  142.7404  157.7499 H   0  0  0  0  0  0  0  0  0  0  0  0
  152.9759  144.8250  156.7766 H   0  0  0  0  0  0  0  0  0  0  0  0
  152.0829  146.6064  158.2672 H   0  0  0  0  0  0  0  0  0  0  0  0
  152.1281  146.2999  160.7366 H   0  0  0  0  0  0  0  0  0  0  0  0
  153.0626  144.2190  161.7162 H   0  0  0  0  0  0  0  0  0  0  0  0
  1  2  2  0  0  0  0
  2 14  1  0  0  0  0
  2  3  1  0  0  0  0
  3  4  1  0  0  0  0
  3  5  2  0  0  0  0
  5  6  1  0  0  0  0
  5 26  1  0  0  0  0
  6  7  1  0  0  0  0
  6 12  1  0  0  0  0
  7 11  1  0  0  0  0
  7  8  1  0  0  0  0
  7 27  1  0  0  0  0
  8  9  1  0  0  0  0
  8 28  1  0  0  0  0
  8 29  1  0  0  0  0
  9 10  1  0  0  0  0
  9 30  1  0  0  0  0
  9 31  1  0  0  0  0
 10 11  1  0  0  0  0
 10 32  1  0  0  0  0
 10 33  1  0  0  0  0
 12 13  2  0  0  0  0
 12 14  1  0  0  0  0
 14 15  1  0  0  0  0
 15 16  1  0  0  0  0
 15 34  1  0  0  0  0
 15 35  1  0  0  0  0
 16 17  1  0  0  0  0
 16 18  1  0  0  0  0
 16 36  1  0  0  0  0
 17 37  1  0  0  0  0
 18 19  1  0  0  0  0
 18 38  1  0  0  0  0
 18 39  1  0  0  0  0
 19 20  1  0  0  0  0
 19 40  1  0  0  0  0
 19 41  1  0  0  0  0
 20 25  1  0  0  0  0
 20 21  2  0  0  0  0
 21 22  1  0  0  0  0
 21 42  1  0  0  0  0
 22 23  2  0  0  0  0
 22 43  1  0  0  0  0
 23 24  1  0  0  0  0
 23 44  1  0  0  0  0
 24 25  2  0  0  0  0
 24 45  1  0  0  0  0
 25 46  1  0  0  0  0
M  END
> <s_m_source_file>
AV-unprocessed.smi

> <i_m_source_file_index>
111

> <i_lp_mmshare_version>
43012

> <i_f3d_flags>
0

> <s_epik_input>
TzFbQ0gyXVtDSDJdW0NIMl1bQ0BIXTFuKFtjSF1jKEYpYzI9TyljKD1PKW4yW0NIMl1bQ0BIXShbT0hdKVtDSDJdW0NIMl1jM1tjSF1bY0hdW2NIXVtjSF1bY0hdMw==

> <s_epik_cmdline>
J2VwaWtfcHl0aG9uJywgJy1waCcsICc3LjAnLCAnLXRuJywgJzgnLCAnLW1hJywgJzIwMCcsICctbWV0YWxfYmluZGluZycsICctaW1hZScsICc8aW5maWxlLm1hZT4nLCAnLW9tYWUnLCAnPG91dGZpbGUubWFlPic=

> <r_lp_tautomer_probability>
1

> <r_epik_Ionization_Penalty>
1.88248e-07

> <r_epik_Ionization_Penalty_Charging>
4.03974e-08

> <r_epik_Ionization_Penalty_Neutral>
1.47851e-07

> <r_epik_State_Penalty>
-0

> <r_epik_Charging_Adjusted_Penalty>
4.03974e-08

> <i_epik_Tot_Q>
0

> <i_epik_Tot_abs_Q>
0

> <r_epik_Metal_State_Penalty>
-0

> <b_epik_Metal_Only>
0

> <s_epik_Chemistry_Notes>
This compound contains an acetal/aminal-like group ( X-CH(R)-Y where X, Y are N, S, or O) that may be acid/base labile, releasing an aldehyde.

> <s_lp_Force_Field>
OPLS_2005

> <r_lp_Energy>
37.7752

> <b_lp_Chiralities_Consistent>
1

> <s_lp_Variant>
AV-unprocessed.smi:111-4

> <Gold.Version>
5.8.1

> <Gold.Id.Protein>
6NUR|6NUR_protein|mol2

> <Gold.PLP.Fitness>
53.3429

> <Gold.PLP.PLP>
-48.0457

> <Gold.PLP.part.hbond>
-2.0000

> <Gold.PLP.part.metal>
0.0000

> <Gold.PLP.part.buried>
-1.5652

> <Gold.PLP.part.nonpolar>
-43.9627

> <Gold.PLP.part.repulsive>
0.0000

> <Gold.PLP.ligand.clash>
0.0000

> <Gold.PLP.ligand.torsion>
0.4612

> <Gold.PLP.Chemscore.Hbond>
2.0000

> <Gold.PLP.Chemscore.CHOScore>
0.0000

> <Gold.PLP.Chemscore.Metal>
0.0000

> <Gold.Chemscore.Hbonds>
donor molecule, donor type, donor heavy atom, donor atom, acceptor molecule, acceptor atom, score
      P1  H  7997  8009       L1    17  0.87

> <Gold.PLP.Chemscore.Internal.Correction>
0.2196

> <Gold.Rescore>
     Score         DG    S(hbond)    S(metal)    S(lipo)     H(rot)  DE(clash)    DE(int)     intcor
     13.99     -17.82       1.45        0.00     122.57       2.67       0.24       3.59       ----

> <Gold.Chemscore.Fitness>
13.9855

> <Gold.Chemscore.DG>
-17.8166

> <Gold.Chemscore.ZeroCoef>
-5.4800

> <Gold.Chemscore.Hbond>
1.4498

> <Gold.Chemscore.Metal>
0.0000

> <Gold.Chemscore.Lipo>
122.5694

> <Gold.Chemscore.Internal_Hbond>
0.0000

> <Gold.Chemscore.DEClash>
0.2386

> <Gold.Chemscore.DEInternal>
3.5925

> <Gold.Chemscore.Rot>
2.6743

> <Gold.Chemscore.Internal.Correction>
   9.000000E+99

> <Gold.Chemscore.Hbonds>
donor molecule, donor type, donor heavy atom, donor atom, acceptor molecule, acceptor atom, score
      P1  H  6896  6908       L1    13  0.05
      P1  H  7997  8009       L1    17  0.17

> <Gold.Chemscore.Hbond.Weighted>
-4.8422

> <Gold.Chemscore.Metal.Weighted>
-0.0000

> <Gold.Chemscore.Lipo.Weighted>
-14.3406

> <Gold.Chemscore.Internal_Hbond.Weighted>
0.0000

> <Gold.Chemscore.DEClash.Weighted>
0.2386

> <Gold.Chemscore.DEInternal.Weighted>
3.5925

> <Gold.Chemscore.Rot.Weighted>
6.8463

> <Gold.Chemscore.Internal.Correction.Weighted>
   9.000000E+99

> <Gold.Protein.RotatedTorsions>
[ 6907 6896 6895 6894 ] final  -54.43 input  -60.11 | X-H torsion
[ 7974 7965 7964 7962 ] final  -88.91 input  175.53 | X-H torsion
[ 8008 7997 7996 7995 ] final  124.82 input   59.86 | X-H torsion
[ 10167 10162 10161 10158 ] final   -8.26 input  -65.29 | X-H torsion
[ 10718 10713 10712 10709 ] final  -64.10 input   66.30 | X-H torsion
[ 10763 10752 10751 10750 ] final   24.88 input  -60.55 | X-H torsion
[ 11005 11000 10999 10996 ] final  -96.93 input  -57.11 | X-H torsion

> <Gold.Protein.ActiveResidues>
 VAL166  LYS551  ARG553  GLY616  TRP617  ASP618  TYR619  PRO620  LYS621  CYS622 
 ASP623  PHE694  ASN695  SER759  ASP760  ASP761  ALA762  ILE779  LEU786  VAL792 
 PHE793  MET794  SER795  GLU796  ALA797  LYS798  CYS799  TRP800  GLU811  SER814 

> <Gold.Protein.RotatedAtoms>
  150.8339  134.7604  159.6876 H   0  0  0  0  0  0  0  0  0  0  0  0  # atno 6907 bound_to 6896
  152.4439  134.5531  159.9882 H   0  0  0  0  0  0  0  0  0  0  0  0  # atno 6908 bound_to 6896
  151.5686  133.3355  159.3021 H   0  0  0  0  0  0  0  0  0  0  0  0  # atno 6909 bound_to 6896
  145.4468  140.9560  143.2044 H   0  0  0  0  0  0  0  0  0  0  0  0  # atno 7974 bound_to 7965
  156.2814  140.2731  156.1850 H   0  0  0  0  0  0  0  0  0  0  0  0  # atno 8008 bound_to 7997
  155.0517  140.0386  157.2564 H   0  0  0  0  0  0  0  0  0  0  0  0  # atno 8009 bound_to 7997
  154.7190  140.2684  155.6564 H   0  0  0  0  0  0  0  0  0  0  0  0  # atno 8010 bound_to 7997
  140.7054  143.5988  150.8818 H   0  0  0  0  0  0  0  0  0  0  0  0  # atno 10167 bound_to 10162
  156.0750  130.4229  150.1371 H   0  0  0  0  0  0  0  0  0  0  0  0  # atno 10718 bound_to 10713
  153.0731  135.6595  154.0203 H   0  0  0  0  0  0  0  0  0  0  0  0  # atno 10763 bound_to 10752
  153.9844  135.2952  155.3419 H   0  0  0  0  0  0  0  0  0  0  0  0  # atno 10764 bound_to 10752
  154.7112  135.5204  153.8739 H   0  0  0  0  0  0  0  0  0  0  0  0  # atno 10765 bound_to 10752
  141.1396  133.8133  157.0637 H   0  0  0  0  0  0  0  0  0  0  0  0  # atno 11005 bound_to 11000
  144.8087  139.6003  143.7039 LP  0  0  0  0  0  0  0  0  0  0  0  0  # atno 17320 bound_to 7965
  146.2526  139.6233  142.9416 LP  0  0  0  0  0  0  0  0  0  0  0  0  # atno 17321 bound_to 7965
  139.9713  143.6054  152.2972 LP  0  0  0  0  0  0  0  0  0  0  0  0  # atno 17342 bound_to 10162
  139.6641  144.7662  151.1906 LP  0  0  0  0  0  0  0  0  0  0  0  0  # atno 17343 bound_to 10162
  156.9414  130.9746  151.3515 LP  0  0  0  0  0  0  0  0  0  0  0  0  # atno 17370 bound_to 10713
  157.5841  130.8397  149.8564 LP  0  0  0  0  0  0  0  0  0  0  0  0  # atno 17371 bound_to 10713
  140.0555  134.9783  157.1212 LP  0  0  0  0  0  0  0  0  0  0  0  0  # atno 17394 bound_to 11000
  140.3926  134.2168  155.7165 LP  0  0  0  0  0  0  0  0  0  0  0  0  # atno 17395 bound_to 11000

$$$$
