AV-unprocessed.smi:2784|AV-procd|sdf|10740|dock10
  -GOLD-   2272015173D 1   1.00000     0.00000
 Structure written by MMmdl.
 31 32  0  0  0  0  0  0  0  0  1 V2000
  150.0173  139.1073  158.2049 C   0  0  0  0  0  0  0  0  0  0  0  0
  149.9463  140.3338  157.4966 O   0  0  0  0  0  0  0  0  0  0  0  0
  151.2125  140.9576  157.2996 C   0  0  2  0  0  0  0  0  0  0  0  0
  151.6969  141.4101  158.6781 C   0  0  0  0  0  0  0  0  0  0  0  0
  150.9898  142.7427  158.9070 C   0  0  0  0  0  0  0  0  0  0  0  0
  150.9590  143.4058  157.5277 C   0  0  0  0  0  0  0  0  0  0  0  0
  151.0724  142.2694  156.4919 C   0  0  2  0  0  0  0  0  0  0  0  0
  149.9226  142.2664  155.5889 N   0  0  0  0  0  0  0  0  0  0  0  0
  149.5747  141.2609  154.7721 C   0  0  0  0  0  0  0  0  0  0  0  0
  150.2360  140.2193  154.7144 O   0  0  0  0  0  0  0  0  0  0  0  0
  148.4208  141.5933  154.0773 N   0  0  0  0  0  0  0  0  0  0  0  0
  147.7120  140.6597  153.5219 C   0  0  0  0  0  0  0  0  0  0  0  0
  146.5377  140.8064  152.8010 N   0  0  0  0  0  0  0  0  0  0  0  0
  146.1292  139.5661  152.3951 C   0  0  0  0  0  0  0  0  0  0  0  0
  147.0089  138.6742  152.8414 C   0  0  0  0  0  0  0  0  0  0  0  0
  147.9913  139.3124  153.5367 O   0  0  0  0  0  0  0  0  0  0  0  0
  149.0214  138.6716  158.2824 H   0  0  0  0  0  0  0  0  0  0  0  0
  150.3970  139.2620  159.2156 H   0  0  0  0  0  0  0  0  0  0  0  0
  150.6612  138.3891  157.6966 H   0  0  0  0  0  0  0  0  0  0  0  0
  151.9338  140.2778  156.8412 H   0  0  0  0  0  0  0  0  0  0  0  0
  151.4898  140.6807  159.4619 H   0  0  0  0  0  0  0  0  0  0  0  0
  152.7756  141.5706  158.6525 H   0  0  0  0  0  0  0  0  0  0  0  0
  149.9704  142.5601  159.2493 H   0  0  0  0  0  0  0  0  0  0  0  0
  151.4866  143.3583  159.6573 H   0  0  0  0  0  0  0  0  0  0  0  0
  150.0586  144.0094  157.4036 H   0  0  0  0  0  0  0  0  0  0  0  0
  151.8101  144.0797  157.4221 H   0  0  0  0  0  0  0  0  0  0  0  0
  151.9891  142.4340  155.9224 H   0  0  0  0  0  0  0  0  0  0  0  0
  149.3367  143.0887  155.5987 H   0  0  0  0  0  0  0  0  0  0  0  0
  146.0357  141.6568  152.5902 H   0  0  0  0  0  0  0  0  0  0  0  0
  145.2264  139.4513  151.8133 H   0  0  0  0  0  0  0  0  0  0  0  0
  147.0743  137.5999  152.7531 H   0  0  0  0  0  0  0  0  0  0  0  0
  1  2  1  0  0  0  0
  1 17  1  0  0  0  0
  1 18  1  0  0  0  0
  1 19  1  0  0  0  0
  2  3  1  0  0  0  0
  3  7  1  0  0  0  0
  3  4  1  0  0  0  0
  3 20  1  0  0  0  0
  4  5  1  0  0  0  0
  4 21  1  0  0  0  0
  4 22  1  0  0  0  0
  5  6  1  0  0  0  0
  5 23  1  0  0  0  0
  5 24  1  0  0  0  0
  6  7  1  0  0  0  0
  6 25  1  0  0  0  0
  6 26  1  0  0  0  0
  7  8  1  0  0  0  0
  7 27  1  0  0  0  0
  8 28  1  0  0  0  0
  8  9  1  0  0  0  0
  9 11  1  0  0  0  0
  9 10  2  0  0  0  0
 11 12  2  0  0  0  0
 12 16  1  0  0  0  0
 12 13  1  0  0  0  0
 13 29  1  0  0  0  0
 13 14  1  0  0  0  0
 14 30  1  0  0  0  0
 14 15  2  0  0  0  0
 15 31  1  0  0  0  0
 15 16  1  0  0  0  0
M  END
> <s_m_source_file>
AV-unprocessed.smi

> <i_m_source_file_index>
2784

> <i_lp_mmshare_version>
43012

> <i_f3d_flags>
0

> <s_epik_input>
W0NIM11PW0NAQEhdMVtDSDJdW0NIMl1bQ0gyXVtDQEhdMVtOSF1DKD1PKVtOSF1jMm5bY0hdW2NIXW8y

> <s_epik_cmdline>
J2VwaWtfcHl0aG9uJywgJy1waCcsICc3LjAnLCAnLXRuJywgJzgnLCAnLW1hJywgJzIwMCcsICctbWV0YWxfYmluZGluZycsICctaW1hZScsICc8aW5maWxlLm1hZT4nLCAnLW9tYWUnLCAnPG91dGZpbGUubWFlPic=

> <r_lp_tautomer_probability>
0.107061

> <r_epik_Ionization_Penalty>
1.29244

> <r_epik_Ionization_Penalty_Charging>
1.29208

> <r_epik_Ionization_Penalty_Neutral>
0.000359742

> <r_epik_State_Penalty>
2.59896

> <r_epik_Charging_Adjusted_Penalty>
3.89105

> <i_epik_Tot_Q>
0

> <i_epik_Tot_abs_Q>
0

> <r_epik_Metal_State_Penalty>
3.62496

> <b_epik_Metal_Only>
0

> <s_lp_Force_Field>
OPLS_2005

> <r_lp_Energy>
45.4205

> <b_lp_Chiralities_Consistent>
1

> <s_lp_Variant>
AV-unprocessed.smi:2784-15

> <Gold.Version>
5.8.1

> <Gold.Id.Protein>
6NUR|6NUR_protein|mol2

> <Gold.PLP.Fitness>
35.1009

> <Gold.PLP.PLP>
-21.3677

> <Gold.PLP.part.hbond>
-3.8223

> <Gold.PLP.part.metal>
0.0000

> <Gold.PLP.part.buried>
3.7356

> <Gold.PLP.part.nonpolar>
-21.6155

> <Gold.PLP.part.repulsive>
2.3530

> <Gold.PLP.ligand.clash>
0.0000

> <Gold.PLP.ligand.torsion>
0.2711

> <Gold.PLP.Chemscore.Hbond>
2.0487

> <Gold.PLP.Chemscore.CHOScore>
2.7055

> <Gold.PLP.Chemscore.Metal>
0.0000

> <Gold.Chemscore.Hbonds>
donor molecule, donor type, donor heavy atom, donor atom, acceptor molecule, acceptor atom, score
      L1  H     8    28       P1  8028  1.00
      P1  H  7989  7998       L1    10  0.85
      P1  H  8011  8017       L1    11  0.05
      L1  C    14    30       P1 10171  0.97
      L1  C    14    30       P1 10175  0.57
      L1  C    15    31       P1  7948  0.96

> <Gold.PLP.Chemscore.Internal.Correction>
0.0129

> <Gold.Rescore>
     Score         DG    S(hbond)    S(metal)    S(lipo)     H(rot)  DE(clash)    DE(int)     intcor
      7.47     -13.76       1.37        0.00      60.71       1.32       0.28       6.02       ----

> <Gold.Chemscore.Fitness>
7.4691

> <Gold.Chemscore.DG>
-13.7634

> <Gold.Chemscore.ZeroCoef>
-5.4800

> <Gold.Chemscore.Hbond>
1.3679

> <Gold.Chemscore.Metal>
0.0000

> <Gold.Chemscore.Lipo>
60.7073

> <Gold.Chemscore.Internal_Hbond>
0.0000

> <Gold.Chemscore.DEClash>
0.2793

> <Gold.Chemscore.DEInternal>
6.0150

> <Gold.Chemscore.Rot>
1.3235

> <Gold.Chemscore.Internal.Correction>
   9.000000E+99

> <Gold.Chemscore.Hbonds>
donor molecule, donor type, donor heavy atom, donor atom, acceptor molecule, acceptor atom, score
      L1  H     8    28       P1  8028  1.00
      P1  H  7989  7998       L1    10  0.14

> <Gold.Chemscore.Hbond.Weighted>
-4.5689

> <Gold.Chemscore.Metal.Weighted>
-0.0000

> <Gold.Chemscore.Lipo.Weighted>
-7.1028

> <Gold.Chemscore.Internal_Hbond.Weighted>
0.0000

> <Gold.Chemscore.DEClash.Weighted>
0.2793

> <Gold.Chemscore.DEInternal.Weighted>
6.0150

> <Gold.Chemscore.Rot.Weighted>
3.3882

> <Gold.Chemscore.Internal.Correction.Weighted>
   9.000000E+99

> <Gold.Protein.RotatedTorsions>
[ 6907 6896 6895 6894 ] final   46.23 input  -60.11 | X-H torsion
[ 7974 7965 7964 7962 ] final   54.89 input  175.53 | X-H torsion
[ 8008 7997 7996 7995 ] final  -64.10 input   59.86 | X-H torsion
[ 10167 10162 10161 10158 ] final  -53.76 input  -65.29 | X-H torsion
[ 10718 10713 10712 10709 ] final  177.64 input   66.30 | X-H torsion
[ 10763 10752 10751 10750 ] final  -32.27 input  -60.55 | X-H torsion
[ 11005 11000 10999 10996 ] final -158.07 input  -57.11 | X-H torsion

> <Gold.Protein.ActiveResidues>
 VAL166  LYS551  ARG553  GLY616  TRP617  ASP618  TYR619  PRO620  LYS621  CYS622 
 ASP623  PHE694  ASN695  SER759  ASP760  ASP761  ALA762  ILE779  LEU786  VAL792 
 PHE793  MET794  SER795  GLU796  ALA797  LYS798  CYS799  TRP800  GLU811  SER814 

> <Gold.Protein.RotatedAtoms>
  152.2539  134.8104  160.0441 H   0  0  0  0  0  0  0  0  0  0  0  0  # atno 6907 bound_to 6896
  151.8775  133.3483  159.3763 H   0  0  0  0  0  0  0  0  0  0  0  0  # atno 6908 bound_to 6896
  150.7093  134.4979  159.5591 H   0  0  0  0  0  0  0  0  0  0  0  0  # atno 6909 bound_to 6896
  145.9561  139.4016  143.0276 H   0  0  0  0  0  0  0  0  0  0  0  0  # atno 7974 bound_to 7965
  154.4592  140.0961  156.6844 H   0  0  0  0  0  0  0  0  0  0  0  0  # atno 8008 bound_to 7997
  155.5046  140.3474  155.4359 H   0  0  0  0  0  0  0  0  0  0  0  0  # atno 8009 bound_to 7997
  156.0837  140.1379  156.9669 H   0  0  0  0  0  0  0  0  0  0  0  0  # atno 8010 bound_to 7997
  140.6467  143.2540  151.4838 H   0  0  0  0  0  0  0  0  0  0  0  0  # atno 10167 bound_to 10162
  156.9024  130.9883  151.3033 H   0  0  0  0  0  0  0  0  0  0  0  0  # atno 10718 bound_to 10713
  153.8110  135.6882  153.4841 H   0  0  0  0  0  0  0  0  0  0  0  0  # atno 10763 bound_to 10752
  153.1628  135.4573  154.9794 H   0  0  0  0  0  0  0  0  0  0  0  0  # atno 10764 bound_to 10752
  154.7967  135.3322  154.7590 H   0  0  0  0  0  0  0  0  0  0  0  0  # atno 10765 bound_to 10752
  140.6576  134.4383  157.5235 H   0  0  0  0  0  0  0  0  0  0  0  0  # atno 11005 bound_to 11000
  145.8104  140.9729  143.0952 LP  0  0  0  0  0  0  0  0  0  0  0  0  # atno 17320 bound_to 7965
  144.6805  139.9913  143.7484 LP  0  0  0  0  0  0  0  0  0  0  0  0  # atno 17321 bound_to 7965
  139.5679  144.1999  152.1792 LP  0  0  0  0  0  0  0  0  0  0  0  0  # atno 17342 bound_to 10162
  140.1286  144.5308  150.6817 LP  0  0  0  0  0  0  0  0  0  0  0  0  # atno 17343 bound_to 10162
  157.6018  130.8518  149.8813 LP  0  0  0  0  0  0  0  0  0  0  0  0  # atno 17370 bound_to 10713
  156.0575  130.3705  150.1057 LP  0  0  0  0  0  0  0  0  0  0  0  0  # atno 17371 bound_to 10713
  139.9024  134.8526  156.1842 LP  0  0  0  0  0  0  0  0  0  0  0  0  # atno 17394 bound_to 11000
  141.0489  133.6899  156.1735 LP  0  0  0  0  0  0  0  0  0  0  0  0  # atno 17395 bound_to 11000

$$$$
