AV-unprocessed.smi:1430|AV-procd|sdf|5822|dock7
  -GOLD-   22720 5483D 1   1.00000     0.00000
 Structure written by MMmdl.
 46 47  0  0  0  0  0  0  0  0  1 V2000
  149.8159  130.2018  154.1597 C   0  0  0  0  0  0  0  0  0  0  0  0
  150.4854  130.8369  155.2436 O   0  0  0  0  0  0  0  0  0  0  0  0
  150.5025  132.2161  155.2852 C   0  0  0  0  0  0  0  0  0  0  0  0
  151.1886  132.8502  156.3394 C   0  0  0  0  0  0  0  0  0  0  0  0
  151.2051  134.2568  156.3884 C   0  0  0  0  0  0  0  0  0  0  0  0
  150.5314  134.9891  155.3901 C   0  0  0  0  0  0  0  0  0  0  0  0
  150.5792  136.4079  155.4628 N   0  0  0  0  0  0  0  0  0  0  0  0
  151.5624  137.1945  155.9338 C   0  0  0  0  0  0  0  0  0  0  0  0
  152.6342  136.8010  156.3929 O   0  0  0  0  0  0  0  0  0  0  0  0
  151.2366  138.4902  155.8264 N   0  0  0  0  0  0  0  0  0  0  0  0
  152.0859  139.6045  156.2291 C   0  0  0  0  0  0  0  0  0  0  0  0
  152.3540  139.5831  157.7455 C   0  0  0  0  0  0  0  0  0  0  0  0
  152.7460  140.8683  158.3219 N   0  0  0  0  0  0  0  0  0  0  0  0
  151.8331  141.9497  157.9589 C   0  0  0  0  0  0  0  0  0  0  0  0
  152.2430  143.2913  158.5971 C   0  0  1  0  0  0  0  0  0  0  0  0
  151.2393  144.4080  158.2917 C   0  0  0  0  0  0  0  0  0  0  0  0
  152.3204  143.1331  160.0112 O   0  0  0  0  0  0  0  0  0  0  0  0
  153.2396  142.1217  160.4139 C   0  0  1  0  0  0  0  0  0  0  0  0
  153.2466  142.0574  161.9449 C   0  0  0  0  0  0  0  0  0  0  0  0
  152.8217  140.7831  159.7760 C   0  0  0  0  0  0  0  0  0  0  0  0
  149.8817  134.2593  154.3644 C   0  0  0  0  0  0  0  0  0  0  0  0
  149.8632  132.9101  154.3117 N   0  0  0  0  0  0  0  0  0  0  0  0
  149.8906  129.1206  154.2741 H   0  0  0  0  0  0  0  0  0  0  0  0
  150.2682  130.4648  153.2024 H   0  0  0  0  0  0  0  0  0  0  0  0
  148.7561  130.4597  154.1381 H   0  0  0  0  0  0  0  0  0  0  0  0
  151.6934  132.2682  157.0964 H   0  0  0  0  0  0  0  0  0  0  0  0
  151.7264  134.7644  157.1870 H   0  0  0  0  0  0  0  0  0  0  0  0
  149.7896  136.8862  155.0547 H   0  0  0  0  0  0  0  0  0  0  0  0
  150.3362  138.7240  155.4344 H   0  0  0  0  0  0  0  0  0  0  0  0
  153.0253  139.5828  155.6740 H   0  0  0  0  0  0  0  0  0  0  0  0
  151.5724  140.5205  155.9388 H   0  0  0  0  0  0  0  0  0  0  0  0
  151.4756  139.1988  158.2662 H   0  0  0  0  0  0  0  0  0  0  0  0
  153.1510  138.8620  157.9326 H   0  0  0  0  0  0  0  0  0  0  0  0
  151.8077  142.0748  156.8770 H   0  0  0  0  0  0  0  0  0  0  0  0
  150.8185  141.6946  158.2690 H   0  0  0  0  0  0  0  0  0  0  0  0
  153.2232  143.5896  158.2213 H   0  0  0  0  0  0  0  0  0  0  0  0
  151.1542  144.5757  157.2178 H   0  0  0  0  0  0  0  0  0  0  0  0
  151.5491  145.3472  158.7510 H   0  0  0  0  0  0  0  0  0  0  0  0
  150.2476  144.1619  158.6723 H   0  0  0  0  0  0  0  0  0  0  0  0
  154.2390  142.3944  160.0701 H   0  0  0  0  0  0  0  0  0  0  0  0
  153.9461  141.3016  162.3024 H   0  0  0  0  0  0  0  0  0  0  0  0
  152.2585  141.8101  162.3343 H   0  0  0  0  0  0  0  0  0  0  0  0
  153.5439  143.0150  162.3734 H   0  0  0  0  0  0  0  0  0  0  0  0
  151.8542  140.4766  160.1772 H   0  0  0  0  0  0  0  0  0  0  0  0
  153.5359  140.0100  160.0623 H   0  0  0  0  0  0  0  0  0  0  0  0
  149.3751  134.7451  153.5457 H   0  0  0  0  0  0  0  0  0  0  0  0
  1  2  1  0  0  0  0
  1 23  1  0  0  0  0
  1 24  1  0  0  0  0
  1 25  1  0  0  0  0
  2  3  1  0  0  0  0
  3 22  1  0  0  0  0
  3  4  2  0  0  0  0
  4  5  1  0  0  0  0
  4 26  1  0  0  0  0
  5  6  2  0  0  0  0
  5 27  1  0  0  0  0
  6  7  1  0  0  0  0
  6 21  1  0  0  0  0
  7  8  1  0  0  0  0
  7 28  1  0  0  0  0
  8  9  2  0  0  0  0
  8 10  1  0  0  0  0
 10 11  1  0  0  0  0
 10 29  1  0  0  0  0
 11 12  1  0  0  0  0
 11 30  1  0  0  0  0
 11 31  1  0  0  0  0
 12 13  1  0  0  0  0
 12 32  1  0  0  0  0
 12 33  1  0  0  0  0
 13 20  1  0  0  0  0
 13 14  1  0  0  0  0
 14 15  1  0  0  0  0
 14 34  1  0  0  0  0
 14 35  1  0  0  0  0
 15 16  1  0  0  0  0
 15 17  1  0  0  0  0
 15 36  1  0  0  0  0
 16 37  1  0  0  0  0
 16 38  1  0  0  0  0
 16 39  1  0  0  0  0
 17 18  1  0  0  0  0
 18 19  1  0  0  0  0
 18 20  1  0  0  0  0
 18 40  1  0  0  0  0
 19 41  1  0  0  0  0
 19 42  1  0  0  0  0
 19 43  1  0  0  0  0
 20 44  1  0  0  0  0
 20 45  1  0  0  0  0
 21 22  2  0  0  0  0
 21 46  1  0  0  0  0
M  END
> <s_m_source_file>
AV-unprocessed.smi

> <i_m_source_file_index>
1430

> <i_lp_mmshare_version>
43012

> <i_f3d_flags>
0

> <s_epik_input>
W0NIM11PYzFbY0hdW2NIXWMoW2NIXW4xKVtOSF1DKD1PKVtOSF1bQ0gyXVtDSDJdTjJbQ0gyXVtDQEBIXShbQ0gzXSlPW0NAQEhdKFtDSDNdKVtDSDJdMg==

> <s_epik_cmdline>
J2VwaWtfcHl0aG9uJywgJy1waCcsICc3LjAnLCAnLXRuJywgJzgnLCAnLW1hJywgJzIwMCcsICctbWV0YWxfYmluZGluZycsICctaW1hZScsICc8aW5maWxlLm1hZT4nLCAnLW9tYWUnLCAnPG91dGZpbGUubWFlPic=

> <r_lp_tautomer_probability>
1

> <r_epik_Ionization_Penalty>
0.266083

> <r_epik_Ionization_Penalty_Charging>
0

> <r_epik_Ionization_Penalty_Neutral>
0.266083

> <r_epik_State_Penalty>
0.257924

> <r_epik_Charging_Adjusted_Penalty>
0.257924

> <i_epik_Tot_Q>
0

> <i_epik_Tot_abs_Q>
0

> <r_epik_Metal_State_Penalty>
0.257922

> <b_epik_Metal_Only>
0

> <s_lp_Force_Field>
OPLS_2005

> <r_lp_Energy>
23.3408

> <b_lp_Chiralities_Consistent>
1

> <s_lp_Variant>
AV-unprocessed.smi:1430-1

> <Gold.Version>
5.8.1

> <Gold.Id.Protein>
6NUR|6NUR_protein|mol2

> <Gold.PLP.Fitness>
44.4701

> <Gold.PLP.PLP>
-39.1701

> <Gold.PLP.part.hbond>
-1.7216

> <Gold.PLP.part.metal>
0.0000

> <Gold.PLP.part.buried>
-4.8121

> <Gold.PLP.part.nonpolar>
-32.4550

> <Gold.PLP.part.repulsive>
0.2265

> <Gold.PLP.ligand.clash>
0.0000

> <Gold.PLP.ligand.torsion>
0.3677

> <Gold.PLP.Chemscore.Hbond>
1.0000

> <Gold.PLP.Chemscore.CHOScore>
1.0000

> <Gold.PLP.Chemscore.Metal>
0.0000

> <Gold.Chemscore.Hbonds>
donor molecule, donor type, donor heavy atom, donor atom, acceptor molecule, acceptor atom, score
      P1  H 10752 10765       L1     9  0.99
      L1  C    21    46       P1  7948  0.59

> <Gold.PLP.Chemscore.Internal.Correction>
0.0354

> <Gold.Rescore>
     Score         DG    S(hbond)    S(metal)    S(lipo)     H(rot)  DE(clash)    DE(int)     intcor
     14.17     -15.77       0.96        0.00      98.11       1.71       0.02       1.59       ----

> <Gold.Chemscore.Fitness>
14.1716

> <Gold.Chemscore.DG>
-15.7744

> <Gold.Chemscore.ZeroCoef>
-5.4800

> <Gold.Chemscore.Hbond>
0.9567

> <Gold.Chemscore.Metal>
0.0000

> <Gold.Chemscore.Lipo>
98.1068

> <Gold.Chemscore.Internal_Hbond>
0.0000

> <Gold.Chemscore.DEClash>
0.0163

> <Gold.Chemscore.DEInternal>
1.5865

> <Gold.Chemscore.Rot>
1.7107

> <Gold.Chemscore.Internal.Correction>
   9.000000E+99

> <Gold.Chemscore.Hbonds>
donor molecule, donor type, donor heavy atom, donor atom, acceptor molecule, acceptor atom, score
      P1  H 10752 10765       L1     9  0.47

> <Gold.Chemscore.Hbond.Weighted>
-3.1953

> <Gold.Chemscore.Metal.Weighted>
-0.0000

> <Gold.Chemscore.Lipo.Weighted>
-11.4785

> <Gold.Chemscore.Internal_Hbond.Weighted>
0.0000

> <Gold.Chemscore.DEClash.Weighted>
0.0163

> <Gold.Chemscore.DEInternal.Weighted>
1.5865

> <Gold.Chemscore.Rot.Weighted>
4.3794

> <Gold.Chemscore.Internal.Correction.Weighted>
   9.000000E+99

> <Gold.Protein.RotatedTorsions>
[ 6907 6896 6895 6894 ] final  -79.31 input  -60.11 | X-H torsion
[ 7974 7965 7964 7962 ] final  -98.21 input  175.53 | X-H torsion
[ 8008 7997 7996 7995 ] final  -73.47 input   59.86 | X-H torsion
[ 10167 10162 10161 10158 ] final  -51.70 input  -65.29 | X-H torsion
[ 10718 10713 10712 10709 ] final   93.72 input   66.30 | X-H torsion
[ 10763 10752 10751 10750 ] final -143.03 input  -60.55 | X-H torsion
[ 11005 11000 10999 10996 ] final -172.08 input  -57.11 | X-H torsion

> <Gold.Protein.ActiveResidues>
 VAL166  LYS551  ARG553  GLY616  TRP617  ASP618  TYR619  PRO620  LYS621  CYS622 
 ASP623  PHE694  ASN695  SER759  ASP760  ASP761  ALA762  ILE779  LEU786  VAL792 
 PHE793  MET794  SER795  GLU796  ALA797  LYS798  CYS799  TRP800  GLU811  SER814 

> <Gold.Protein.RotatedAtoms>
  150.6952  134.4140  159.5174 H   0  0  0  0  0  0  0  0  0  0  0  0  # atno 6907 bound_to 6896
  152.1894  134.8683  160.0528 H   0  0  0  0  0  0  0  0  0  0  0  0  # atno 6908 bound_to 6896
  151.9644  133.3670  159.4084 H   0  0  0  0  0  0  0  0  0  0  0  0  # atno 6909 bound_to 6896
  145.3235  140.9427  143.2702 H   0  0  0  0  0  0  0  0  0  0  0  0  # atno 7974 bound_to 7965
  154.5250  140.0778  156.8242 H   0  0  0  0  0  0  0  0  0  0  0  0  # atno 8008 bound_to 7997
  155.3495  140.3412  155.4221 H   0  0  0  0  0  0  0  0  0  0  0  0  # atno 8009 bound_to 7997
  156.1722  140.1623  156.8414 H   0  0  0  0  0  0  0  0  0  0  0  0  # atno 8010 bound_to 7997
  140.6575  143.2610  151.4541 H   0  0  0  0  0  0  0  0  0  0  0  0  # atno 10167 bound_to 10162
  157.6953  131.0488  150.4077 H   0  0  0  0  0  0  0  0  0  0  0  0  # atno 10718 bound_to 10713
  154.8486  135.3479  154.6122 H   0  0  0  0  0  0  0  0  0  0  0  0  # atno 10763 bound_to 10752
  153.6731  135.6984  153.5145 H   0  0  0  0  0  0  0  0  0  0  0  0  # atno 10764 bound_to 10752
  153.2727  135.4288  155.0959 H   0  0  0  0  0  0  0  0  0  0  0  0  # atno 10765 bound_to 10752
  140.5010  134.5893  157.4988 H   0  0  0  0  0  0  0  0  0  0  0  0  # atno 11005 bound_to 11000
  144.8920  139.4762  143.6673 LP  0  0  0  0  0  0  0  0  0  0  0  0  # atno 17320 bound_to 7965
  146.3073  139.7624  142.9046 LP  0  0  0  0  0  0  0  0  0  0  0  0  # atno 17321 bound_to 7965
  139.5801  144.1729  152.1956 LP  0  0  0  0  0  0  0  0  0  0  0  0  # atno 17342 bound_to 10162
  140.1052  144.5505  150.6962 LP  0  0  0  0  0  0  0  0  0  0  0  0  # atno 17343 bound_to 10162
  156.4464  130.4002  149.6664 LP  0  0  0  0  0  0  0  0  0  0  0  0  # atno 17370 bound_to 10713
  156.3829  130.7588  151.2582 LP  0  0  0  0  0  0  0  0  0  0  0  0  # atno 17371 bound_to 10713
  139.9713  134.7288  156.0036 LP  0  0  0  0  0  0  0  0  0  0  0  0  # atno 17394 bound_to 11000
  141.1435  133.6560  156.3800 LP  0  0  0  0  0  0  0  0  0  0  0  0  # atno 17395 bound_to 11000

$$$$
