AV-unprocessed.smi:250|AV-procd|sdf|1933|dock3
  -GOLD-   2262021 53D 1   1.00000     0.00000
 Structure written by MMmdl.
 56 60  0  0  0  0  0  0  0  0  1 V2000
  151.7362  141.8920  157.9795 C   0  0  0  0  0  0  0  0  0  0  0  0
  151.2639  141.0081  156.9214 N   0  0  0  0  0  0  0  0  0  0  0  0
  151.9072  139.9203  156.4657 C   0  0  0  0  0  0  0  0  0  0  0  0
  152.9756  139.4780  156.8834 O   0  0  0  0  0  0  0  0  0  0  0  0
  151.1936  139.3994  155.4632 N   0  0  0  0  0  0  0  0  0  0  0  0
  150.0442  140.2107  155.1238 C   0  0  1  0  0  0  0  0  0  0  0  0
  148.7830  139.4110  154.7164 C   0  0  0  0  0  0  0  0  0  0  0  0
  147.7707  139.3048  155.7675 N   0  0  0  0  0  0  0  0  0  0  0  0
  146.7160  138.5009  155.4756 C   0  0  0  0  0  0  0  0  0  0  0  0
  145.9890  138.0253  156.5200 N   0  0  0  0  0  0  0  0  0  0  0  0
  144.9348  137.2331  156.3085 C   0  0  0  0  0  0  0  0  0  0  0  0
  144.4397  136.7962  155.1502 N   0  0  0  0  0  0  0  0  0  0  0  0
  145.1661  137.2627  154.0946 C   0  0  0  0  0  0  0  0  0  0  0  0
  146.3104  138.1090  154.1638 C   0  0  0  0  0  0  0  0  0  0  0  0
  146.7890  138.3467  152.8794 N   0  0  0  0  0  0  0  0  0  0  0  0
  145.9726  137.6913  152.1016 C   0  0  0  0  0  0  0  0  0  0  0  0
  144.9564  137.0250  152.7467 N   0  0  0  0  0  0  0  0  0  0  0  0
  143.9163  136.2125  152.1309 C   0  0  0  0  0  0  0  0  0  0  0  0
  144.3975  134.8843  151.4679 C   0  0  0  0  0  0  0  0  0  0  0  0
  144.4673  135.1264  149.9331 C   0  0  0  0  0  0  0  0  0  0  0  0
  145.3782  136.1516  149.5889 O   0  0  0  0  0  0  0  0  0  0  0  0
  145.8019  134.4848  151.9925 C   0  0  0  0  0  0  0  0  0  0  0  0
  146.2440  133.0857  151.5223 C   0  0  0  0  0  0  0  0  0  0  0  0
  145.2775  132.1142  151.9034 O   0  0  0  0  0  0  0  0  0  0  0  0
  143.9966  132.3478  151.3309 C   0  0  0  0  0  0  0  0  0  0  0  0
  143.4500  133.7047  151.8106 C   0  0  0  0  0  0  0  0  0  0  0  0
  147.5446  140.4783  156.6012 C   0  0  0  0  0  0  0  0  0  0  0  0
  148.8445  140.8421  157.3140 C   0  0  0  0  0  0  0  0  0  0  0  0
  149.9557  141.1902  156.3057 C   0  0  1  0  0  0  0  0  0  0  0  0
  150.3618  140.7705  154.2421 H   0  0  0  0  0  0  0  0  0  0  0  0
  149.8311  142.2111  155.9415 H   0  0  0  0  0  0  0  0  0  0  0  0
  152.7510  142.2337  157.7717 H   0  0  0  0  0  0  0  0  0  0  0  0
  151.7370  141.3709  158.9373 H   0  0  0  0  0  0  0  0  0  0  0  0
  151.0976  142.7710  158.0712 H   0  0  0  0  0  0  0  0  0  0  0  0
  151.4608  138.5785  154.9394 H   0  0  0  0  0  0  0  0  0  0  0  0
  148.3099  139.9141  153.8721 H   0  0  0  0  0  0  0  0  0  0  0  0
  149.0790  138.4264  154.3523 H   0  0  0  0  0  0  0  0  0  0  0  0
  144.4130  136.9029  157.1945 H   0  0  0  0  0  0  0  0  0  0  0  0
  146.0874  137.6795  151.0273 H   0  0  0  0  0  0  0  0  0  0  0  0
  143.1731  136.0022  152.9010 H   0  0  0  0  0  0  0  0  0  0  0  0
  143.4070  136.8318  151.3911 H   0  0  0  0  0  0  0  0  0  0  0  0
  144.7733  134.2138  149.4205 H   0  0  0  0  0  0  0  0  0  0  0  0
  143.5004  135.3981  149.5139 H   0  0  0  0  0  0  0  0  0  0  0  0
  144.9349  136.9834  149.6596 H   0  0  0  0  0  0  0  0  0  0  0  0
  146.5434  135.2291  151.7001 H   0  0  0  0  0  0  0  0  0  0  0  0
  145.8057  134.4652  153.0817 H   0  0  0  0  0  0  0  0  0  0  0  0
  146.4101  133.0511  150.4456 H   0  0  0  0  0  0  0  0  0  0  0  0
  147.1949  132.8254  151.9874 H   0  0  0  0  0  0  0  0  0  0  0  0
  144.0503  132.2950  150.2433 H   0  0  0  0  0  0  0  0  0  0  0  0
  143.3270  131.5479  151.6467 H   0  0  0  0  0  0  0  0  0  0  0  0
  143.3202  133.6317  152.8895 H   0  0  0  0  0  0  0  0  0  0  0  0
  142.4543  133.8739  151.4001 H   0  0  0  0  0  0  0  0  0  0  0  0
  147.1961  141.3100  155.9878 H   0  0  0  0  0  0  0  0  0  0  0  0
  146.7774  140.2715  157.3482 H   0  0  0  0  0  0  0  0  0  0  0  0
  148.6795  141.6806  157.9909 H   0  0  0  0  0  0  0  0  0  0  0  0
  149.1465  139.9987  157.9380 H   0  0  0  0  0  0  0  0  0  0  0  0
  1  2  1  0  0  0  0
  1 32  1  0  0  0  0
  1 33  1  0  0  0  0
  1 34  1  0  0  0  0
  2 29  1  0  0  0  0
  2  3  1  0  0  0  0
  3  4  2  0  0  0  0
  3  5  1  0  0  0  0
  5  6  1  0  0  0  0
  5 35  1  0  0  0  0
  6 30  1  0  0  0  0
  6 29  1  0  0  0  0
  6  7  1  0  0  0  0
  7  8  1  0  0  0  0
  7 36  1  0  0  0  0
  7 37  1  0  0  0  0
  8  9  1  0  0  0  0
  8 27  1  0  0  0  0
  9 14  1  0  0  0  0
  9 10  2  0  0  0  0
 10 11  1  0  0  0  0
 11 12  2  0  0  0  0
 11 38  1  0  0  0  0
 12 13  1  0  0  0  0
 13 17  1  0  0  0  0
 13 14  2  0  0  0  0
 14 15  1  0  0  0  0
 15 16  2  0  0  0  0
 16 17  1  0  0  0  0
 16 39  1  0  0  0  0
 17 18  1  0  0  0  0
 18 19  1  0  0  0  0
 18 40  1  0  0  0  0
 18 41  1  0  0  0  0
 19 26  1  0  0  0  0
 19 20  1  0  0  0  0
 19 22  1  0  0  0  0
 20 21  1  0  0  0  0
 20 42  1  0  0  0  0
 20 43  1  0  0  0  0
 21 44  1  0  0  0  0
 22 23  1  0  0  0  0
 22 45  1  0  0  0  0
 22 46  1  0  0  0  0
 23 24  1  0  0  0  0
 23 47  1  0  0  0  0
 23 48  1  0  0  0  0
 24 25  1  0  0  0  0
 25 26  1  0  0  0  0
 25 49  1  0  0  0  0
 25 50  1  0  0  0  0
 26 51  1  0  0  0  0
 26 52  1  0  0  0  0
 27 28  1  0  0  0  0
 27 53  1  0  0  0  0
 27 54  1  0  0  0  0
 28 29  1  0  0  0  0
 28 55  1  0  0  0  0
 28 56  1  0  0  0  0
 29 31  1  0  0  0  0
M  END
> <s_m_source_file>
AV-unprocessed.smi

> <i_m_source_file_index>
250

> <i_lp_mmshare_version>
43012

> <i_f3d_flags>
0

> <s_epik_input>
Tz1DKFtOSF0xKU4oW0NIM10pW0NASF0oW0NASF0xMilbQ0gyXVtDSDJdTihbQ0gyXTIpYyhuW2NIXW4zKWMoYzM0KW5bY0hdbjRbQ0gyXUM1KFtDSDJdW09IXSlbQ0gyXVtDSDJdT1tDSDJdW0NIMl01

> <s_epik_cmdline>
J2VwaWtfcHl0aG9uJywgJy1waCcsICc3LjAnLCAnLXRuJywgJzgnLCAnLW1hJywgJzIwMCcsICctbWV0YWxfYmluZGluZycsICctaW1hZScsICc8aW5maWxlLm1hZT4nLCAnLW9tYWUnLCAnPG91dGZpbGUubWFlPic=

> <r_lp_tautomer_probability>
1

> <r_epik_Ionization_Penalty>
0.00229024

> <r_epik_Ionization_Penalty_Charging>
0

> <r_epik_Ionization_Penalty_Neutral>
0.00229024

> <r_epik_State_Penalty>
0.0013961

> <r_epik_Charging_Adjusted_Penalty>
0.0013961

> <i_epik_Tot_Q>
0

> <i_epik_Tot_abs_Q>
0

> <r_epik_Metal_State_Penalty>
-0

> <b_epik_Metal_Only>
0

> <s_lp_Force_Field>
OPLS_2005

> <r_lp_Energy>
68.1887

> <b_lp_Chiralities_Consistent>
1

> <s_lp_Variant>
AV-unprocessed.smi:250-4

> <Gold.Version>
5.8.1

> <Gold.Id.Protein>
6NUR|6NUR_protein|mol2

> <Gold.PLP.Fitness>
42.0912

> <Gold.PLP.PLP>
-36.7419

> <Gold.PLP.part.hbond>
-2.7635

> <Gold.PLP.part.metal>
0.0000

> <Gold.PLP.part.buried>
-5.0763

> <Gold.PLP.part.nonpolar>
-30.0805

> <Gold.PLP.part.repulsive>
0.5203

> <Gold.PLP.ligand.clash>
0.0000

> <Gold.PLP.ligand.torsion>
1.5489

> <Gold.PLP.Chemscore.Hbond>
2.0000

> <Gold.PLP.Chemscore.CHOScore>
0.7241

> <Gold.PLP.Chemscore.Metal>
0.0000

> <Gold.Chemscore.Hbonds>
donor molecule, donor type, donor heavy atom, donor atom, acceptor molecule, acceptor atom, score
      L1  H    21    44       P1 10171  1.00
      P1  H  7997  8010       L1     4  0.91
      L1  C    16    39       P1 10171  0.40

> <Gold.PLP.Chemscore.Internal.Correction>
0.2748

> <Gold.Rescore>
     Score         DG    S(hbond)    S(metal)    S(lipo)     H(rot)  DE(clash)    DE(int)     intcor
     11.07     -14.33       1.94        0.00      68.88       2.22       0.27       2.99       ----

> <Gold.Chemscore.Fitness>
11.0731

> <Gold.Chemscore.DG>
-14.3302

> <Gold.Chemscore.ZeroCoef>
-5.4800

> <Gold.Chemscore.Hbond>
1.9363

> <Gold.Chemscore.Metal>
0.0000

> <Gold.Chemscore.Lipo>
68.8779

> <Gold.Chemscore.Internal_Hbond>
0.0000

> <Gold.Chemscore.DEClash>
0.2658

> <Gold.Chemscore.DEInternal>
2.9913

> <Gold.Chemscore.Rot>
2.2170

> <Gold.Chemscore.Internal.Correction>
   9.000000E+99

> <Gold.Chemscore.Hbonds>
donor molecule, donor type, donor heavy atom, donor atom, acceptor molecule, acceptor atom, score
      L1  H    21    44       P1 10171  1.00
      P1  H  7997  8010       L1     4  0.83

> <Gold.Chemscore.Hbond.Weighted>
-6.4671

> <Gold.Chemscore.Metal.Weighted>
-0.0000

> <Gold.Chemscore.Lipo.Weighted>
-8.0587

> <Gold.Chemscore.Internal_Hbond.Weighted>
0.0000

> <Gold.Chemscore.DEClash.Weighted>
0.2658

> <Gold.Chemscore.DEInternal.Weighted>
2.9913

> <Gold.Chemscore.Rot.Weighted>
5.6756

> <Gold.Chemscore.Internal.Correction.Weighted>
   9.000000E+99

> <Gold.Protein.RotatedTorsions>
[ 6907 6896 6895 6894 ] final  162.39 input  -60.11 | X-H torsion
[ 7974 7965 7964 7962 ] final -136.50 input  175.53 | X-H torsion
[ 8008 7997 7996 7995 ] final   85.16 input   59.86 | X-H torsion
[ 10167 10162 10161 10158 ] final  132.76 input  -65.29 | X-H torsion
[ 10718 10713 10712 10709 ] final  133.44 input   66.30 | X-H torsion
[ 10763 10752 10751 10750 ] final  124.52 input  -60.55 | X-H torsion
[ 11005 11000 10999 10996 ] final -161.64 input  -57.11 | X-H torsion

> <Gold.Protein.ActiveResidues>
 VAL166  LYS551  ARG553  GLY616  TRP617  ASP618  TYR619  PRO620  LYS621  CYS622 
 ASP623  PHE694  ASN695  SER759  ASP760  ASP761  ALA762  ILE779  LEU786  VAL792 
 PHE793  MET794  SER795  GLU796  ALA797  LYS798  CYS799  TRP800  GLU811  SER814 

> <Gold.Protein.RotatedAtoms>
  151.9412  133.3638  159.3965 H   0  0  0  0  0  0  0  0  0  0  0  0  # atno 6907 bound_to 6896
  150.6998  134.4437  159.5313 H   0  0  0  0  0  0  0  0  0  0  0  0  # atno 6908 bound_to 6896
  152.2094  134.8515  160.0550 H   0  0  0  0  0  0  0  0  0  0  0  0  # atno 6909 bound_to 6896
  144.8922  140.6657  143.5138 H   0  0  0  0  0  0  0  0  0  0  0  0  # atno 7974 bound_to 7965
  155.9465  140.3404  155.6371 H   0  0  0  0  0  0  0  0  0  0  0  0  # atno 8008 bound_to 7997
  155.6974  140.0756  157.2442 H   0  0  0  0  0  0  0  0  0  0  0  0  # atno 8009 bound_to 7997
  154.4113  140.1646  156.2141 H   0  0  0  0  0  0  0  0  0  0  0  0  # atno 8010 bound_to 7997
  139.5326  144.6647  151.4898 H   0  0  0  0  0  0  0  0  0  0  0  0  # atno 10167 bound_to 10162
  157.4772  131.1083  150.9728 H   0  0  0  0  0  0  0  0  0  0  0  0  # atno 10718 bound_to 10713
  153.6628  135.3343  155.3132 H   0  0  0  0  0  0  0  0  0  0  0  0  # atno 10763 bound_to 10752
  154.8510  135.4367  154.1787 H   0  0  0  0  0  0  0  0  0  0  0  0  # atno 10764 bound_to 10752
  153.2758  135.7004  153.7510 H   0  0  0  0  0  0  0  0  0  0  0  0  # atno 10765 bound_to 10752
  140.6182  134.4778  157.5221 H   0  0  0  0  0  0  0  0  0  0  0  0  # atno 11005 bound_to 11000
  145.3763  139.1647  143.4304 LP  0  0  0  0  0  0  0  0  0  0  0  0  # atno 17320 bound_to 7965
  146.3060  140.3840  142.8687 LP  0  0  0  0  0  0  0  0  0  0  0  0  # atno 17321 bound_to 7965
  140.6513  143.8691  150.6788 LP  0  0  0  0  0  0  0  0  0  0  0  0  # atno 17342 bound_to 10162
  140.2056  143.3924  152.1758 LP  0  0  0  0  0  0  0  0  0  0  0  0  # atno 17343 bound_to 10162
  157.0473  130.5773  149.5365 LP  0  0  0  0  0  0  0  0  0  0  0  0  # atno 17370 bound_to 10713
  156.0103  130.5194  150.7966 LP  0  0  0  0  0  0  0  0  0  0  0  0  # atno 17371 bound_to 10713
  139.9164  134.8237  156.1352 LP  0  0  0  0  0  0  0  0  0  0  0  0  # atno 17394 bound_to 11000
  141.0761  133.6775  156.2239 LP  0  0  0  0  0  0  0  0  0  0  0  0  # atno 17395 bound_to 11000

$$$$
