AV-unprocessed.smi:775|AV-procd|sdf|3696|dock1
  -GOLD-   22720 1113D 1   1.00000     0.00000
 Structure written by MMmdl.
 39 40  0  0  0  0  0  0  0  0  2 V2000
  145.7413  135.6804  151.8669 C   0  0  0  0  0  0  0  0  0  0  0  0
  146.2026  134.4103  152.6069 C   0  0  1  0  0  0  0  0  0  0  0  0
  146.6989  133.3057  151.6480 C   0  0  0  0  0  0  0  0  0  0  0  0
  145.7518  132.9777  150.5940 N   0  0  0  0  0  0  0  0  0  0  0  0
  145.9150  132.1060  149.5370 C   0  0  0  0  0  0  0  0  0  0  0  0
  144.7598  132.1265  148.8100 C   0  0  0  0  0  0  0  0  0  0  0  0
  143.9337  133.0463  149.5143 C   0  0  0  0  0  0  0  0  0  0  0  0
  144.5296  133.5521  150.5821 N   0  0  0  0  0  0  0  0  0  0  0  0
  147.2482  134.7167  153.6094 N   0  3  0  0  0  0  0  0  0  0  0  0
  146.8058  135.4981  154.7854 C   0  0  0  0  0  0  0  0  0  0  0  0
  147.9074  136.4327  155.3101 C   0  0  0  0  0  0  0  0  0  0  0  0
  148.8670  135.9357  155.9030 O   0  0  0  0  0  0  0  0  0  0  0  0
  147.7930  137.7693  155.1077 N   0  0  0  0  0  0  0  0  0  0  0  0
  146.6903  138.4114  154.3848 C   0  0  0  0  0  0  0  0  0  0  0  0
  147.2390  138.9703  153.0605 C   0  0  0  0  0  0  0  0  0  0  0  0
  148.4939  139.7010  153.2468 N   0  0  0  0  0  0  0  0  0  0  0  0
  149.2794  139.6321  154.3375 C   0  0  0  0  0  0  0  0  0  0  0  0
  150.3177  140.2827  154.4268 O   0  0  0  0  0  0  0  0  0  0  0  0
  148.8576  138.7085  155.4969 C   0  0  0  0  0  0  0  0  0  0  0  0
  145.0411  135.4315  151.0690 H   0  0  0  0  0  0  0  0  0  0  0  0
  146.5798  136.2136  151.4182 H   0  0  0  0  0  0  0  0  0  0  0  0
  145.2290  136.3726  152.5347 H   0  0  0  0  0  0  0  0  0  0  0  0
  145.3453  133.9996  153.1424 H   0  0  0  0  0  0  0  0  0  0  0  0
  147.6384  133.6061  151.1819 H   0  0  0  0  0  0  0  0  0  0  0  0
  146.9182  132.3965  152.2104 H   0  0  0  0  0  0  0  0  0  0  0  0
  146.8299  131.5508  149.3899 H   0  0  0  0  0  0  0  0  0  0  0  0
  144.5370  131.5668  147.9137 H   0  0  0  0  0  0  0  0  0  0  0  0
  142.9258  133.3585  149.2834 H   0  0  0  0  0  0  0  0  0  0  0  0
  147.6100  133.8395  153.9557 H   0  0  0  0  0  0  0  0  0  0  0  0
  145.9366  136.0965  154.5125 H   0  0  0  0  0  0  0  0  0  0  0  0
  146.5120  134.8100  155.5787 H   0  0  0  0  0  0  0  0  0  0  0  0
  145.8303  137.7707  154.1976 H   0  0  0  0  0  0  0  0  0  0  0  0
  146.3120  139.2309  154.9983 H   0  0  0  0  0  0  0  0  0  0  0  0
  147.4226  138.1547  152.3600 H   0  0  0  0  0  0  0  0  0  0  0  0
  146.5058  139.6290  152.5944 H   0  0  0  0  0  0  0  0  0  0  0  0
  148.7850  140.3095  152.4950 H   0  0  0  0  0  0  0  0  0  0  0  0
  148.4922  139.3281  156.3166 H   0  0  0  0  0  0  0  0  0  0  0  0
  149.7543  138.2099  155.8679 H   0  0  0  0  0  0  0  0  0  0  0  0
  148.0025  135.2105  153.1538 H   0  0  0  0  0  0  0  0  0  0  0  0
  1  2  1  0  0  0  0
  1 20  1  0  0  0  0
  1 21  1  0  0  0  0
  1 22  1  0  0  0  0
  2  3  1  0  0  0  0
  2  9  1  0  0  0  0
  2 23  1  0  0  0  0
  3  4  1  0  0  0  0
  3 24  1  0  0  0  0
  3 25  1  0  0  0  0
  4  8  1  0  0  0  0
  4  5  1  0  0  0  0
  5  6  2  0  0  0  0
  5 26  1  0  0  0  0
  6  7  1  0  0  0  0
  6 27  1  0  0  0  0
  7  8  2  0  0  0  0
  7 28  1  0  0  0  0
  9 10  1  0  0  0  0
  9 29  1  0  0  0  0
  9 39  1  0  0  0  0
 10 11  1  0  0  0  0
 10 30  1  0  0  0  0
 10 31  1  0  0  0  0
 11 12  2  0  0  0  0
 11 13  1  0  0  0  0
 13 19  1  0  0  0  0
 13 14  1  0  0  0  0
 14 15  1  0  0  0  0
 14 32  1  0  0  0  0
 14 33  1  0  0  0  0
 15 16  1  0  0  0  0
 15 34  1  0  0  0  0
 15 35  1  0  0  0  0
 16 17  1  0  0  0  0
 16 36  1  0  0  0  0
 17 18  2  0  0  0  0
 17 19  1  0  0  0  0
 19 37  1  0  0  0  0
 19 38  1  0  0  0  0
M  CHG  1   9   1
M  END
> <s_m_source_file>
AV-unprocessed.smi

> <i_m_source_file_index>
775

> <i_lp_mmshare_version>
43012

> <i_f3d_flags>
0

> <s_epik_input>
bjFbY0hdW2NIXVtjSF1uMVtDSDJdW0NAQEhdKFtDSDNdKVtOSF1bQ0gyXUMoPU8pTjJbQ0gyXVtDSDJdW05IXUMoPU8pW0NIMl0y

> <s_epik_cmdline>
J2VwaWtfcHl0aG9uJywgJy1waCcsICc3LjAnLCAnLXRuJywgJzgnLCAnLW1hJywgJzIwMCcsICctbWV0YWxfYmluZGluZycsICctaW1hZScsICc8aW5maWxlLm1hZT4nLCAnLW9tYWUnLCAnPG91dGZpbGUubWFlPic=

> <r_lp_tautomer_probability>
1

> <r_epik_Ionization_Penalty>
0.165651

> <r_epik_Ionization_Penalty_Charging>
0.165647

> <r_epik_Ionization_Penalty_Neutral>
3.4358e-06

> <r_epik_State_Penalty>
0.15499

> <r_epik_Charging_Adjusted_Penalty>
0.320637

> <i_epik_Tot_Q>
1

> <i_epik_Tot_abs_Q>
1

> <r_epik_Metal_State_Penalty>
0.155003

> <b_epik_Metal_Only>
0

> <s_lp_Force_Field>
OPLS_2005

> <r_lp_Energy>
22.1436

> <b_lp_Chiralities_Consistent>
1

> <s_lp_Variant>
AV-unprocessed.smi:775-2

> <Gold.Version>
5.8.1

> <Gold.Id.Protein>
6NUR|6NUR_protein|mol2

> <Gold.PLP.Fitness>
43.1016

> <Gold.PLP.PLP>
-27.0794

> <Gold.PLP.part.hbond>
-2.7093

> <Gold.PLP.part.metal>
0.0000

> <Gold.PLP.part.buried>
-3.0335

> <Gold.PLP.part.nonpolar>
-22.1449

> <Gold.PLP.part.repulsive>
0.4107

> <Gold.PLP.ligand.clash>
0.0000

> <Gold.PLP.ligand.torsion>
0.4732

> <Gold.PLP.Chemscore.Hbond>
3.6240

> <Gold.PLP.Chemscore.CHOScore>
2.0000

> <Gold.PLP.Chemscore.Metal>
0.0000

> <Gold.Chemscore.Hbonds>
donor molecule, donor type, donor heavy atom, donor atom, acceptor molecule, acceptor atom, score
      L1  H     9    39       P1  7948  2.00
      L1  H    16    36       P1  7957  0.66
      P1  H  7989  7998       L1    18  1.00
      L1  C     5    26       P1 10747  1.00
      L1  C     7    28       P1 10186  1.00

> <Gold.PLP.Chemscore.Internal.Correction>
0.0966

> <Gold.Rescore>
     Score         DG    S(hbond)    S(metal)    S(lipo)     H(rot)  DE(clash)    DE(int)     intcor
     14.21     -16.24       2.72        0.00      62.20       2.18       0.09       1.94       ----

> <Gold.Chemscore.Fitness>
14.2144

> <Gold.Chemscore.DG>
-16.2434

> <Gold.Chemscore.ZeroCoef>
-5.4800

> <Gold.Chemscore.Hbond>
2.7166

> <Gold.Chemscore.Metal>
0.0000

> <Gold.Chemscore.Lipo>
62.2038

> <Gold.Chemscore.Internal_Hbond>
0.0000

> <Gold.Chemscore.DEClash>
0.0883

> <Gold.Chemscore.DEInternal>
1.9408

> <Gold.Chemscore.Rot>
2.1828

> <Gold.Chemscore.Internal.Correction>
   9.000000E+99

> <Gold.Chemscore.Hbonds>
donor molecule, donor type, donor heavy atom, donor atom, acceptor molecule, acceptor atom, score
      L1  H     9    39       P1  7948  0.99
      L1  H    16    36       P1  7957  0.65
      P1  H  7989  7998       L1    18  0.97

> <Gold.Chemscore.Hbond.Weighted>
-9.0736

> <Gold.Chemscore.Metal.Weighted>
-0.0000

> <Gold.Chemscore.Lipo.Weighted>
-7.2778

> <Gold.Chemscore.Internal_Hbond.Weighted>
0.0000

> <Gold.Chemscore.DEClash.Weighted>
0.0883

> <Gold.Chemscore.DEInternal.Weighted>
1.9408

> <Gold.Chemscore.Rot.Weighted>
5.5880

> <Gold.Chemscore.Internal.Correction.Weighted>
   9.000000E+99

> <Gold.Protein.RotatedTorsions>
[ 6907 6896 6895 6894 ] final -128.42 input  -60.11 | X-H torsion
[ 7974 7965 7964 7962 ] final   76.96 input  175.53 | X-H torsion
[ 8008 7997 7996 7995 ] final   36.91 input   59.86 | X-H torsion
[ 10167 10162 10161 10158 ] final   42.76 input  -65.29 | X-H torsion
[ 10718 10713 10712 10709 ] final -159.22 input   66.30 | X-H torsion
[ 10763 10752 10751 10750 ] final  -61.93 input  -60.55 | X-H torsion
[ 11005 11000 10999 10996 ] final  -43.01 input  -57.11 | X-H torsion

> <Gold.Protein.ActiveResidues>
 VAL166  LYS551  ARG553  GLY616  TRP617  ASP618  TYR619  PRO620  LYS621  CYS622 
 ASP623  PHE694  ASN695  SER759  ASP760  ASP761  ALA762  ILE779  LEU786  VAL792 
 PHE793  MET794  SER795  GLU796  ALA797  LYS798  CYS799  TRP800  GLU811  SER814 

> <Gold.Protein.RotatedAtoms>
  150.9178  133.6918  159.2839 H   0  0  0  0  0  0  0  0  0  0  0  0  # atno 6907 bound_to 6896
  151.4383  135.1016  159.9672 H   0  0  0  0  0  0  0  0  0  0  0  0  # atno 6908 bound_to 6896
  152.4963  133.8592  159.7296 H   0  0  0  0  0  0  0  0  0  0  0  0  # atno 6909 bound_to 6896
  145.6961  139.2567  143.1732 H   0  0  0  0  0  0  0  0  0  0  0  0  # atno 7974 bound_to 7965
  155.1951  140.3311  155.4352 H   0  0  0  0  0  0  0  0  0  0  0  0  # atno 8008 bound_to 7997
  156.2428  140.1903  156.6992 H   0  0  0  0  0  0  0  0  0  0  0  0  # atno 8009 bound_to 7997
  154.6179  140.0599  156.9564 H   0  0  0  0  0  0  0  0  0  0  0  0  # atno 8010 bound_to 7997
  140.3511  144.2349  150.6145 H   0  0  0  0  0  0  0  0  0  0  0  0  # atno 10167 bound_to 10162
  156.5651  130.8664  151.2821 H   0  0  0  0  0  0  0  0  0  0  0  0  # atno 10718 bound_to 10713
  154.2922  135.6251  153.5390 H   0  0  0  0  0  0  0  0  0  0  0  0  # atno 10763 bound_to 10752
  152.9851  135.5658  154.5378 H   0  0  0  0  0  0  0  0  0  0  0  0  # atno 10764 bound_to 10752
  154.4991  135.2871  155.1411 H   0  0  0  0  0  0  0  0  0  0  0  0  # atno 10765 bound_to 10752
  141.0355  133.6802  156.2674 H   0  0  0  0  0  0  0  0  0  0  0  0  # atno 11005 bound_to 11000
  146.0839  140.7733  142.9628 LP  0  0  0  0  0  0  0  0  0  0  0  0  # atno 17320 bound_to 7965
  144.6982  140.3532  143.7178 LP  0  0  0  0  0  0  0  0  0  0  0  0  # atno 17321 bound_to 7965
  140.5218  143.2264  151.8377 LP  0  0  0  0  0  0  0  0  0  0  0  0  # atno 17342 bound_to 10162
  139.4826  144.4828  151.9285 LP  0  0  0  0  0  0  0  0  0  0  0  0  # atno 17343 bound_to 10162
  157.7360  130.9772  150.2114 LP  0  0  0  0  0  0  0  0  0  0  0  0  # atno 17370 bound_to 10713
  156.2764  130.3728  149.7979 LP  0  0  0  0  0  0  0  0  0  0  0  0  # atno 17371 bound_to 10713
  140.6330  134.5244  157.5561 LP  0  0  0  0  0  0  0  0  0  0  0  0  # atno 17394 bound_to 11000
  139.9237  134.8097  156.1132 LP  0  0  0  0  0  0  0  0  0  0  0  0  # atno 17395 bound_to 11000

$$$$
