AV-unprocessed.smi:2105|AV-procd|sdf|8591|dock7
  -GOLD-   2272011323D 1   1.00000     0.00000
 Structure written by MMmdl.
 42 43  0  0  0  0  0  0  0  0  1 V2000
  144.0827  132.4282  148.0629 C   0  0  0  0  0  0  0  0  0  0  0  0
  144.4742  132.5154  149.5337 C   0  0  0  0  0  0  0  0  0  0  0  0
  144.0887  131.6562  150.3261 O   0  0  0  0  0  0  0  0  0  0  0  0
  145.2418  133.5590  149.8833 N   0  0  0  0  0  0  0  0  0  0  0  0
  145.7346  133.8180  151.2315 C   0  0  0  0  0  0  0  0  0  0  0  0
  145.2174  135.1601  151.7881 C   0  0  0  0  0  0  0  0  0  0  0  0
  146.3104  136.0573  152.1463 N   0  0  0  0  0  0  0  0  0  0  0  0
  146.1713  137.2687  152.7015 C   0  0  0  0  0  0  0  0  0  0  0  0
  145.0863  137.7446  153.0360 O   0  0  0  0  0  0  0  0  0  0  0  0
  147.3588  137.8864  152.8090 N   0  0  0  0  0  0  0  0  0  0  0  0
  147.6275  139.2106  153.2563 C   0  0  0  0  0  0  0  0  0  0  0  0
  146.8067  140.3148  152.9226 C   0  0  0  0  0  0  0  0  0  0  0  0
  147.1321  141.5868  153.4277 C   0  0  0  0  0  0  0  0  0  0  0  0
  148.2615  141.7086  154.2571 C   0  0  0  0  0  0  0  0  0  0  0  0
  149.0446  140.6643  154.5967 N   0  0  0  0  0  0  0  0  0  0  0  0
  148.7392  139.4379  154.1075 C   0  0  0  0  0  0  0  0  0  0  0  0
  149.5593  138.3618  154.4914 N   0  0  0  0  0  0  0  0  0  0  0  0
  150.9685  138.4389  154.1233 C   0  0  0  0  0  0  0  0  0  0  0  0
  151.7057  137.6055  155.1680 C   0  0  0  0  0  0  0  0  0  0  0  0
  150.8820  137.8540  156.4266 C   0  0  0  0  0  0  0  0  0  0  0  0
  149.4509  137.9870  155.8971 C   0  0  0  0  0  0  0  0  0  0  0  0
  143.6047  133.3526  147.7380 H   0  0  0  0  0  0  0  0  0  0  0  0
  143.3849  131.6070  147.8962 H   0  0  0  0  0  0  0  0  0  0  0  0
  144.9646  132.2576  147.4452 H   0  0  0  0  0  0  0  0  0  0  0  0
  145.5118  134.2139  149.1639 H   0  0  0  0  0  0  0  0  0  0  0  0
  145.5206  132.9819  151.8995 H   0  0  0  0  0  0  0  0  0  0  0  0
  146.8211  133.8680  151.1562 H   0  0  0  0  0  0  0  0  0  0  0  0
  144.5973  135.6512  151.0363 H   0  0  0  0  0  0  0  0  0  0  0  0
  144.5734  135.0052  152.6545 H   0  0  0  0  0  0  0  0  0  0  0  0
  147.2418  135.7547  151.9011 H   0  0  0  0  0  0  0  0  0  0  0  0
  148.1478  137.4002  152.4085 H   0  0  0  0  0  0  0  0  0  0  0  0
  145.9290  140.2061  152.3044 H   0  0  0  0  0  0  0  0  0  0  0  0
  146.5257  142.4480  153.1894 H   0  0  0  0  0  0  0  0  0  0  0  0
  148.5392  142.6688  154.6661 H   0  0  0  0  0  0  0  0  0  0  0  0
  151.1282  138.0489  153.1178 H   0  0  0  0  0  0  0  0  0  0  0  0
  151.3314  139.4670  154.1442 H   0  0  0  0  0  0  0  0  0  0  0  0
  151.6648  136.5487  154.8993 H   0  0  0  0  0  0  0  0  0  0  0  0
  152.7524  137.8896  155.2768 H   0  0  0  0  0  0  0  0  0  0  0  0
  150.9874  137.0630  157.1697 H   0  0  0  0  0  0  0  0  0  0  0  0
  151.1920  138.7933  156.8868 H   0  0  0  0  0  0  0  0  0  0  0  0
  148.8753  138.7047  156.4836 H   0  0  0  0  0  0  0  0  0  0  0  0
  148.9357  137.0274  155.9522 H   0  0  0  0  0  0  0  0  0  0  0  0
  1  2  1  0  0  0  0
  1 22  1  0  0  0  0
  1 23  1  0  0  0  0
  1 24  1  0  0  0  0
  2  3  2  0  0  0  0
  2  4  1  0  0  0  0
  4  5  1  0  0  0  0
  4 25  1  0  0  0  0
  5  6  1  0  0  0  0
  5 26  1  0  0  0  0
  5 27  1  0  0  0  0
  6  7  1  0  0  0  0
  6 28  1  0  0  0  0
  6 29  1  0  0  0  0
  7  8  1  0  0  0  0
  7 30  1  0  0  0  0
  8  9  2  0  0  0  0
  8 10  1  0  0  0  0
 10 11  1  0  0  0  0
 10 31  1  0  0  0  0
 11 16  1  0  0  0  0
 11 12  2  0  0  0  0
 12 13  1  0  0  0  0
 12 32  1  0  0  0  0
 13 14  2  0  0  0  0
 13 33  1  0  0  0  0
 14 15  1  0  0  0  0
 14 34  1  0  0  0  0
 15 16  2  0  0  0  0
 16 17  1  0  0  0  0
 17 21  1  0  0  0  0
 17 18  1  0  0  0  0
 18 19  1  0  0  0  0
 18 35  1  0  0  0  0
 18 36  1  0  0  0  0
 19 20  1  0  0  0  0
 19 37  1  0  0  0  0
 19 38  1  0  0  0  0
 20 21  1  0  0  0  0
 20 39  1  0  0  0  0
 20 40  1  0  0  0  0
 21 41  1  0  0  0  0
 21 42  1  0  0  0  0
M  END
> <s_m_source_file>
AV-unprocessed.smi

> <i_m_source_file_index>
2105

> <i_lp_mmshare_version>
43012

> <i_f3d_flags>
0

> <s_epik_input>
W0NIM11DKD1PKVtOSF1bQ0gyXVtDSDJdW05IXUMoPU8pW05IXWMxW2NIXVtjSF1bY0hdbmMxTjJbQ0gyXVtDSDJdW0NIMl1bQ0gyXTI=

> <s_epik_cmdline>
J2VwaWtfcHl0aG9uJywgJy1waCcsICc3LjAnLCAnLXRuJywgJzgnLCAnLW1hJywgJzIwMCcsICctbWV0YWxfYmluZGluZycsICctaW1hZScsICc8aW5maWxlLm1hZT4nLCAnLW9tYWUnLCAnPG91dGZpbGUubWFlPic=

> <r_lp_tautomer_probability>
1

> <r_epik_Ionization_Penalty>
0.0963551

> <r_epik_Ionization_Penalty_Charging>
0

> <r_epik_Ionization_Penalty_Neutral>
0.0963551

> <r_epik_State_Penalty>
0.0859578

> <r_epik_Charging_Adjusted_Penalty>
0.0859578

> <i_epik_Tot_Q>
0

> <i_epik_Tot_abs_Q>
0

> <r_epik_Metal_State_Penalty>
0.0739032

> <b_epik_Metal_Only>
0

> <s_lp_Force_Field>
OPLS_2005

> <r_lp_Energy>
32.5144

> <b_lp_Chiralities_Consistent>
1

> <s_lp_Variant>
AV-unprocessed.smi:2105-1

> <Gold.Version>
5.8.1

> <Gold.Id.Protein>
6NUR|6NUR_protein|mol2

> <Gold.PLP.Fitness>
44.2957

> <Gold.PLP.PLP>
-33.6126

> <Gold.PLP.part.hbond>
-3.2862

> <Gold.PLP.part.metal>
0.0000

> <Gold.PLP.part.buried>
-2.6812

> <Gold.PLP.part.nonpolar>
-26.8477

> <Gold.PLP.part.repulsive>
1.2912

> <Gold.PLP.ligand.clash>
0.0000

> <Gold.PLP.ligand.torsion>
0.7792

> <Gold.PLP.Chemscore.Hbond>
3.0411

> <Gold.PLP.Chemscore.CHOScore>
1.0000

> <Gold.PLP.Chemscore.Metal>
0.0000

> <Gold.Chemscore.Hbonds>
donor molecule, donor type, donor heavy atom, donor atom, acceptor molecule, acceptor atom, score
      L1  H     4    25       P1  7921  1.00
      L1  H     7    30       P1  7948  0.91
      L1  H    10    31       P1  7948  0.94
      P1  H 10785 10796       L1     3  0.11
      L1  C    14    34       P1  8028  1.00

> <Gold.PLP.Chemscore.Internal.Correction>
0.1181

> <Gold.Rescore>
     Score         DG    S(hbond)    S(metal)    S(lipo)     H(rot)  DE(clash)    DE(int)     intcor
     17.30     -18.99       2.89        0.00      75.53       1.94       0.31       1.38       ----

> <Gold.Chemscore.Fitness>
17.2957

> <Gold.Chemscore.DG>
-18.9870

> <Gold.Chemscore.ZeroCoef>
-5.4800

> <Gold.Chemscore.Hbond>
2.8880

> <Gold.Chemscore.Metal>
0.0000

> <Gold.Chemscore.Lipo>
75.5294

> <Gold.Chemscore.Internal_Hbond>
0.0000

> <Gold.Chemscore.DEClash>
0.3129

> <Gold.Chemscore.DEInternal>
1.3784

> <Gold.Chemscore.Rot>
1.9437

> <Gold.Chemscore.Internal.Correction>
   9.000000E+99

> <Gold.Chemscore.Hbonds>
donor molecule, donor type, donor heavy atom, donor atom, acceptor molecule, acceptor atom, score
      L1  H     4    25       P1  7921  0.88
      L1  H     7    30       P1  7948  0.90
      L1  H    10    31       P1  7948  0.89
      P1  H 10785 10796       L1     3  0.02

> <Gold.Chemscore.Hbond.Weighted>
-9.6459

> <Gold.Chemscore.Metal.Weighted>
-0.0000

> <Gold.Chemscore.Lipo.Weighted>
-8.8369

> <Gold.Chemscore.Internal_Hbond.Weighted>
0.0000

> <Gold.Chemscore.DEClash.Weighted>
0.3129

> <Gold.Chemscore.DEInternal.Weighted>
1.3784

> <Gold.Chemscore.Rot.Weighted>
4.9759

> <Gold.Chemscore.Internal.Correction.Weighted>
   9.000000E+99

> <Gold.Protein.RotatedTorsions>
[ 6907 6896 6895 6894 ] final  115.66 input  -60.11 | X-H torsion
[ 7974 7965 7964 7962 ] final  -34.44 input  175.53 | X-H torsion
[ 8008 7997 7996 7995 ] final  154.03 input   59.86 | X-H torsion
[ 10167 10162 10161 10158 ] final  115.26 input  -65.29 | X-H torsion
[ 10718 10713 10712 10709 ] final  -70.15 input   66.30 | X-H torsion
[ 10763 10752 10751 10750 ] final -169.23 input  -60.55 | X-H torsion
[ 11005 11000 10999 10996 ] final   77.79 input  -57.11 | X-H torsion

> <Gold.Protein.ActiveResidues>
 VAL166  LYS551  ARG553  GLY616  TRP617  ASP618  TYR619  PRO620  LYS621  CYS622 
 ASP623  PHE694  ASN695  SER759  ASP760  ASP761  ALA762  ILE779  LEU786  VAL792 
 PHE793  MET794  SER795  GLU796  ALA797  LYS798  CYS799  TRP800  GLU811  SER814 

> <Gold.Protein.RotatedAtoms>
  152.4727  133.8067  159.6981 H   0  0  0  0  0  0  0  0  0  0  0  0  # atno 6907 bound_to 6896
  150.8726  133.7474  159.2963 H   0  0  0  0  0  0  0  0  0  0  0  0  # atno 6908 bound_to 6896
  151.5004  135.1065  159.9879 H   0  0  0  0  0  0  0  0  0  0  0  0  # atno 6909 bound_to 6896
  146.0829  140.6039  142.8900 H   0  0  0  0  0  0  0  0  0  0  0  0  # atno 7974 bound_to 7965
  156.2552  140.1977  156.6583 H   0  0  0  0  0  0  0  0  0  0  0  0  # atno 8008 bound_to 7997
  154.6484  140.0575  156.9952 H   0  0  0  0  0  0  0  0  0  0  0  0  # atno 8009 bound_to 7997
  155.1455  140.3246  155.4445 H   0  0  0  0  0  0  0  0  0  0  0  0  # atno 8010 bound_to 7997
  139.6330  144.7117  151.2393 H   0  0  0  0  0  0  0  0  0  0  0  0  # atno 10167 bound_to 10162
  156.0421  130.4326  150.2252 H   0  0  0  0  0  0  0  0  0  0  0  0  # atno 10718 bound_to 10713
  154.6545  135.2916  154.9945 H   0  0  0  0  0  0  0  0  0  0  0  0  # atno 10763 bound_to 10752
  154.1026  135.6574  153.4875 H   0  0  0  0  0  0  0  0  0  0  0  0  # atno 10764 bound_to 10752
  153.0395  135.5246  154.7468 H   0  0  0  0  0  0  0  0  0  0  0  0  # atno 10765 bound_to 10752
  139.9239  134.7711  156.1567 H   0  0  0  0  0  0  0  0  0  0  0  0  # atno 11005 bound_to 11000
  144.7306  140.4658  143.6941 LP  0  0  0  0  0  0  0  0  0  0  0  0  # atno 17320 bound_to 7965
  145.6184  139.1521  143.3036 LP  0  0  0  0  0  0  0  0  0  0  0  0  # atno 17321 bound_to 7965
  140.7450  143.6446  150.8303 LP  0  0  0  0  0  0  0  0  0  0  0  0  # atno 17342 bound_to 10162
  140.0074  143.5679  152.2852 LP  0  0  0  0  0  0  0  0  0  0  0  0  # atno 17343 bound_to 10162
  157.0346  131.0017  151.3302 LP  0  0  0  0  0  0  0  0  0  0  0  0  # atno 17370 bound_to 10713
  157.5253  130.8024  149.7855 LP  0  0  0  0  0  0  0  0  0  0  0  0  # atno 17371 bound_to 10713
  141.0783  133.6766  156.2282 LP  0  0  0  0  0  0  0  0  0  0  0  0  # atno 17394 bound_to 11000
  140.6392  134.5184  157.5568 LP  0  0  0  0  0  0  0  0  0  0  0  0  # atno 17395 bound_to 11000

$$$$
