AV-unprocessed.smi:828|AV-procd|sdf|3864|dock7
  -GOLD-   22720 1313D 1   1.00000     0.00000
 Structure written by MMmdl.
 34 35  0  0  0  0  0  0  0  0  3 V2000
  152.5196  143.6034  161.6109 C   0  0  0  0  0  0  0  0  0  0  0  0
  152.3155  142.6717  160.4658 C   0  0  0  0  0  0  0  0  0  0  0  0
  151.1725  142.6105  159.7783 N   0  0  0  0  0  0  0  0  0  0  0  0
  151.2249  141.6706  158.7593 N   0  0  0  0  0  0  0  0  0  0  0  0
  152.4075  141.0438  158.6829 C   0  0  0  0  0  0  0  0  0  0  0  0
  152.6629  140.0977  157.7641 N   0  5  0  0  0  0  0  0  0  0  0  0
  151.7280  139.1640  157.4795 C   0  0  0  0  0  0  0  0  0  0  0  0
  151.3584  138.2476  158.2167 O   0  0  0  0  0  0  0  0  0  0  0  0
  151.1941  139.2985  156.2588 N   0  0  0  0  0  0  0  0  0  0  0  0
  150.1921  138.4194  155.6655 C   0  0  0  0  0  0  0  0  0  0  0  0
  149.5225  139.0802  154.4418 C   0  0  2  0  0  0  0  0  0  0  0  0
  149.1041  140.5319  154.6716 C   0  0  0  0  0  0  0  0  0  0  0  0
  148.1817  140.7939  153.4895 C   0  0  0  0  0  0  0  0  0  0  0  0
  147.4375  139.4664  153.3250 C   0  0  0  0  0  0  0  0  0  0  0  0
  148.3189  138.4032  153.8731 N   0  3  2  0  0  0  0  0  0  0  0  0
  147.5797  137.4733  154.7629 C   0  0  0  0  0  0  0  0  0  0  0  0
  153.5617  141.5678  159.9087 S   0  0  0  0  0  0  0  0  0  0  0  0
  152.8106  144.5871  161.2423 H   0  0  0  0  0  0  0  0  0  0  0  0
  153.3049  143.2288  162.2677 H   0  0  0  0  0  0  0  0  0  0  0  0
  151.5999  143.7015  162.1884 H   0  0  0  0  0  0  0  0  0  0  0  0
  151.5187  140.0721  155.6972 H   0  0  0  0  0  0  0  0  0  0  0  0
  150.6199  137.4533  155.3937 H   0  0  0  0  0  0  0  0  0  0  0  0
  149.4386  138.2161  156.4273 H   0  0  0  0  0  0  0  0  0  0  0  0
  150.2566  139.0911  153.6339 H   0  0  0  0  0  0  0  0  0  0  0  0
  148.5517  140.6264  155.6079 H   0  0  0  0  0  0  0  0  0  0  0  0
  149.9520  141.2167  154.7057 H   0  0  0  0  0  0  0  0  0  0  0  0
  147.5116  141.6385  153.6519 H   0  0  0  0  0  0  0  0  0  0  0  0
  148.7743  141.0014  152.5972 H   0  0  0  0  0  0  0  0  0  0  0  0
  146.5005  139.5128  153.8829 H   0  0  0  0  0  0  0  0  0  0  0  0
  147.1870  139.2663  152.2827 H   0  0  0  0  0  0  0  0  0  0  0  0
  147.2614  137.9709  155.6798 H   0  0  0  0  0  0  0  0  0  0  0  0
  148.1765  136.6018  155.0270 H   0  0  0  0  0  0  0  0  0  0  0  0
  146.6887  137.0998  154.2567 H   0  0  0  0  0  0  0  0  0  0  0  0
  148.6465  137.8481  153.0955 H   0  0  0  0  0  0  0  0  0  0  0  0
  1  2  1  0  0  0  0
  1 18  1  0  0  0  0
  1 19  1  0  0  0  0
  1 20  1  0  0  0  0
  2 17  1  0  0  0  0
  2  3  2  0  0  0  0
  3  4  1  0  0  0  0
  4  5  2  0  0  0  0
  5  6  1  0  0  0  0
  5 17  1  0  0  0  0
  6  7  1  0  0  0  0
  7  8  2  0  0  0  0
  7  9  1  0  0  0  0
  9 10  1  0  0  0  0
  9 21  1  0  0  0  0
 10 11  1  0  0  0  0
 10 22  1  0  0  0  0
 10 23  1  0  0  0  0
 11 15  1  0  0  0  0
 11 12  1  0  0  0  0
 11 24  1  0  0  0  0
 12 13  1  0  0  0  0
 12 25  1  0  0  0  0
 12 26  1  0  0  0  0
 13 14  1  0  0  0  0
 13 27  1  0  0  0  0
 13 28  1  0  0  0  0
 14 15  1  0  0  0  0
 14 29  1  0  0  0  0
 14 30  1  0  0  0  0
 15 16  1  0  0  0  0
 15 34  1  0  0  0  0
 16 31  1  0  0  0  0
 16 32  1  0  0  0  0
 16 33  1  0  0  0  0
M  CHG  1   6  -1
M  CHG  1  15   1
M  END
> <s_m_source_file>
AV-unprocessed.smi

> <i_m_source_file_index>
828

> <i_lp_mmshare_version>
43012

> <i_f3d_flags>
0

> <s_epik_input>
W0NIM11jMW5uYyhzMSlbTkhdQyg9TylbTkhdW0NIMl1bQ0BASF0yW0NIMl1bQ0gyXVtDSDJdTjJbQ0gzXQ==

> <s_epik_cmdline>
J2VwaWtfcHl0aG9uJywgJy1waCcsICc3LjAnLCAnLXRuJywgJzgnLCAnLW1hJywgJzIwMCcsICctbWV0YWxfYmluZGluZycsICctaW1hZScsICc8aW5maWxlLm1hZT4nLCAnLW9tYWUnLCAnPG91dGZpbGUubWFlPic=

> <r_lp_tautomer_probability>
1

> <r_epik_Ionization_Penalty>
3.94379

> <r_epik_Ionization_Penalty_Charging>
3.83377

> <r_epik_Ionization_Penalty_Neutral>
0.110023

> <r_epik_State_Penalty>
3.83036

> <r_epik_Charging_Adjusted_Penalty>
7.66413

> <i_epik_Tot_Q>
0

> <i_epik_Tot_abs_Q>
2

> <r_epik_Metal_State_Penalty>
0.575095

> <b_epik_Metal_Only>
1

> <s_lp_Force_Field>
OPLS_2005

> <r_lp_Energy>
28.5427

> <b_lp_Chiralities_Consistent>
1

> <s_lp_Variant>
AV-unprocessed.smi:828-7

> <Gold.Version>
5.8.1

> <Gold.Id.Protein>
6NUR|6NUR_protein|mol2

> <Gold.PLP.Fitness>
37.4064

> <Gold.PLP.PLP>
-27.7560

> <Gold.PLP.part.hbond>
-3.0000

> <Gold.PLP.part.metal>
0.0000

> <Gold.PLP.part.buried>
-0.1548

> <Gold.PLP.part.nonpolar>
-24.5429

> <Gold.PLP.part.repulsive>
0.1131

> <Gold.PLP.ligand.clash>
0.0000

> <Gold.PLP.ligand.torsion>
1.1799

> <Gold.PLP.Chemscore.Hbond>
4.0000

> <Gold.PLP.Chemscore.CHOScore>
0.0000

> <Gold.PLP.Chemscore.Metal>
0.0000

> <Gold.Chemscore.Hbonds>
donor molecule, donor type, donor heavy atom, donor atom, acceptor molecule, acceptor atom, score
      L1  H    15    34       P1  7948  1.95
      P1  H  7997  8009       L1     6  2.00

> <Gold.PLP.Chemscore.Internal.Correction>
0.0102

> <Gold.Rescore>
     Score         DG    S(hbond)    S(metal)    S(lipo)     H(rot)  DE(clash)    DE(int)     intcor
     13.97     -16.59       1.95        0.00      67.93       1.31       1.44       1.18       ----

> <Gold.Chemscore.Fitness>
13.9709

> <Gold.Chemscore.DG>
-16.5854

> <Gold.Chemscore.ZeroCoef>
-5.4800

> <Gold.Chemscore.Hbond>
1.9534

> <Gold.Chemscore.Metal>
0.0000

> <Gold.Chemscore.Lipo>
67.9254

> <Gold.Chemscore.Internal_Hbond>
0.0000

> <Gold.Chemscore.DEClash>
1.4383

> <Gold.Chemscore.DEInternal>
1.1762

> <Gold.Chemscore.Rot>
1.3149

> <Gold.Chemscore.Internal.Correction>
   9.000000E+99

> <Gold.Chemscore.Hbonds>
donor molecule, donor type, donor heavy atom, donor atom, acceptor molecule, acceptor atom, score
      L1  H    15    34       P1  7948  0.92
      P1  H  7997  8009       L1     6  0.87

> <Gold.Chemscore.Hbond.Weighted>
-6.5243

> <Gold.Chemscore.Metal.Weighted>
-0.0000

> <Gold.Chemscore.Lipo.Weighted>
-7.9473

> <Gold.Chemscore.Internal_Hbond.Weighted>
0.0000

> <Gold.Chemscore.DEClash.Weighted>
1.4383

> <Gold.Chemscore.DEInternal.Weighted>
1.1762

> <Gold.Chemscore.Rot.Weighted>
3.3662

> <Gold.Chemscore.Internal.Correction.Weighted>
   9.000000E+99

> <Gold.Protein.RotatedTorsions>
[ 6907 6896 6895 6894 ] final -164.67 input  -60.11 | X-H torsion
[ 7974 7965 7964 7962 ] final -177.10 input  175.53 | X-H torsion
[ 8008 7997 7996 7995 ] final  172.04 input   59.86 | X-H torsion
[ 10167 10162 10161 10158 ] final   54.43 input  -65.29 | X-H torsion
[ 10718 10713 10712 10709 ] final  178.63 input   66.30 | X-H torsion
[ 10763 10752 10751 10750 ] final  146.90 input  -60.55 | X-H torsion
[ 11005 11000 10999 10996 ] final  -98.58 input  -57.11 | X-H torsion

> <Gold.Protein.ActiveResidues>
 VAL166  LYS551  ARG553  GLY616  TRP617  ASP618  TYR619  PRO620  LYS621  CYS622 
 ASP623  PHE694  ASN695  SER759  ASP760  ASP761  ALA762  ILE779  LEU786  VAL792 
 PHE793  MET794  SER795  GLU796  ALA797  LYS798  CYS799  TRP800  GLU811  SER814 

> <Gold.Protein.RotatedAtoms>
  151.4155  133.3714  159.2749 H   0  0  0  0  0  0  0  0  0  0  0  0  # atno 6907 bound_to 6896
  150.9331  134.8747  159.7575 H   0  0  0  0  0  0  0  0  0  0  0  0  # atno 6908 bound_to 6896
  152.5037  134.4101  159.9498 H   0  0  0  0  0  0  0  0  0  0  0  0  # atno 6909 bound_to 6896
  144.7127  140.1070  143.6413 H   0  0  0  0  0  0  0  0  0  0  0  0  # atno 7974 bound_to 7965
  156.1213  140.1496  156.9200 H   0  0  0  0  0  0  0  0  0  0  0  0  # atno 8008 bound_to 7997
  154.4838  140.0871  156.7481 H   0  0  0  0  0  0  0  0  0  0  0  0  # atno 8009 bound_to 7997
  155.4423  140.3431  155.4293 H   0  0  0  0  0  0  0  0  0  0  0  0  # atno 8010 bound_to 7997
  140.2302  144.3695  150.6417 H   0  0  0  0  0  0  0  0  0  0  0  0  # atno 10167 bound_to 10162
  156.8877  130.9837  151.3053 H   0  0  0  0  0  0  0  0  0  0  0  0  # atno 10718 bound_to 10713
  154.0295  135.2899  155.3370 H   0  0  0  0  0  0  0  0  0  0  0  0  # atno 10763 bound_to 10752
  154.6997  135.5193  153.8512 H   0  0  0  0  0  0  0  0  0  0  0  0  # atno 10764 bound_to 10752
  153.0646  135.6626  154.0509 H   0  0  0  0  0  0  0  0  0  0  0  0  # atno 10765 bound_to 10752
  141.1339  133.8256  157.0859 H   0  0  0  0  0  0  0  0  0  0  0  0  # atno 11005 bound_to 11000
  145.9488  139.2719  143.1224 LP  0  0  0  0  0  0  0  0  0  0  0  0  # atno 17320 bound_to 7965
  145.9345  140.9024  143.0339 LP  0  0  0  0  0  0  0  0  0  0  0  0  # atno 17321 bound_to 7965
  140.6190  143.2174  151.6732 LP  0  0  0  0  0  0  0  0  0  0  0  0  # atno 17342 bound_to 10162
  139.5112  144.3515  152.0647 LP  0  0  0  0  0  0  0  0  0  0  0  0  # atno 17343 bound_to 10162
  157.6102  130.8577  149.8940 LP  0  0  0  0  0  0  0  0  0  0  0  0  # atno 17370 bound_to 10713
  156.0645  130.3694  150.0909 LP  0  0  0  0  0  0  0  0  0  0  0  0  # atno 17371 bound_to 10713
  140.0422  134.9848  157.0984 LP  0  0  0  0  0  0  0  0  0  0  0  0  # atno 17394 bound_to 11000
  140.4117  134.1974  155.7163 LP  0  0  0  0  0  0  0  0  0  0  0  0  # atno 17395 bound_to 11000

$$$$
