#       Name:                AV-unprocessed.smi:1005
#       Creating user name   scv26
#       Creation time:       Fri Mar 27 02:29:51 2020


#       File generated by GOLD software.
#

@<TRIPOS>MOLECULE
AV-unprocessed.smi:1005
    62    64     1
SMALL
NO_CHARGES


@<TRIPOS>ATOM
      1 ****        -5.6632   3.1507  -4.0578 C.3            1 S1                 0.0000
      2 ****        -4.5995   3.0194  -2.9808 C.ar           1 S1                 0.0000
      3 ****        -5.0132   2.9092  -1.6343 C.ar           1 S1                 0.0000
      4 ****        -4.0173   2.7861  -0.6727 C.ar           1 S1                 0.0000
      5 ****        -4.0983   2.6580   0.7153 N.pl3          1 S1                 1.0000
      6 ****        -2.8443   2.5652   1.2377 C.2            1 S1                 0.0000
      7 ****        -1.9619   2.6279   0.2031 N.pl3          1 S1                 0.0000
      8 ****        -0.4922   2.5760   0.2196 C.3            1 S1                 0.0000
      9 ****         0.0593   1.1361   0.2005 C.3            1 S1                 0.0000
     10 ****        -0.3681   0.4793  -0.9769 O.3            1 S1                 0.0000
     11 ****         1.6010   1.1158   0.2436 C.3            1 S1                 0.0000
     12 ****         2.1605  -0.2604   0.2660 N.4            1 S1                 1.0000
     13 ****         3.5683  -0.3069  -0.1939 C.3            1 S1                 0.0000
     14 ****         4.0735  -1.7581  -0.2227 C.3            1 S1                 0.0000
     15 ****         3.9275  -2.3369   1.0686 O.3            1 S1                 0.0000
     16 ****         2.5685  -2.3875   1.4913 C.3            1 S1                 0.0000
     17 ****         2.5221  -3.0950   2.8588 C.3            1 S1                 0.0000
     18 ****         2.9512  -4.5156   2.7862 N.4            1 S1                 1.0000
     19 ****         1.9246  -5.4114   2.2043 C.3            1 S1                 0.0000
     20 ****         3.4317  -5.0203   4.0916 C.3            1 S1                 0.0000
     21 ****         2.0246  -0.9464   1.5753 C.3            1 S1                 0.0000
     22 ****        -2.6494   2.7716  -1.0090 C.ar           1 S1                 0.0000
     23 ****        -2.2250   2.8828  -2.3315 C.ar           1 S1                 0.0000
     24 ****        -3.2228   3.0085  -3.3246 C.ar           1 S1                 0.0000
     25 ****        -2.7892   3.1297  -4.7756 C.3            1 S1                 0.0000
     26 ****        -6.6674   3.0970  -3.6361 H              1 S1                 0.0000
     27 ****        -5.5686   2.3497  -4.7912 H              1 S1                 0.0000
     28 ****        -5.5688   4.1064  -4.5737 H              1 S1                 0.0000
     29 ****        -6.0594   2.9189  -1.3654 H              1 S1                 0.0000
     30 ****        -2.5964   2.4613   2.2844 H              1 S1                 0.0000
     31 ****        -0.1019   3.1635  -0.6118 H              1 S1                 0.0000
     32 ****        -0.1667   3.0839   1.1283 H              1 S1                 0.0000
     33 ****        -0.3522   0.6007   1.0555 H              1 S1                 0.0000
     34 ****        -1.3128   0.5047  -1.0087 H              1 S1                 0.0000
     35 ****         1.9760   1.6427  -0.6356 H              1 S1                 0.0000
     36 ****         1.9678   1.6695   1.1092 H              1 S1                 0.0000
     37 ****         3.6497   0.1274  -1.1911 H              1 S1                 0.0000
     38 ****         4.1917   0.2941   0.4703 H              1 S1                 0.0000
     39 ****         3.5296  -2.3467  -0.9635 H              1 S1                 0.0000
     40 ****         5.1260  -1.7846  -0.5053 H              1 S1                 0.0000
     41 ****         1.9788  -2.9433   0.7615 H              1 S1                 0.0000
     42 ****         3.1737  -2.5521   3.5455 H              1 S1                 0.0000
     43 ****         1.5190  -3.0429   3.2853 H              1 S1                 0.0000
     44 ****         1.0192  -5.4151   2.8127 H              1 S1                 0.0000
     45 ****         2.2973  -6.4347   2.1477 H              1 S1                 0.0000
     46 ****         1.6549  -5.1114   1.1926 H              1 S1                 0.0000
     47 ****         2.6311  -5.0137   4.8323 H              1 S1                 0.0000
     48 ****         4.2516  -4.4073   4.4673 H              1 S1                 0.0000
     49 ****         3.8028  -6.0417   3.9981 H              1 S1                 0.0000
     50 ****         2.5642  -0.3830   2.3385 H              1 S1                 0.0000
     51 ****         0.9794  -0.9761   1.8808 H              1 S1                 0.0000
     52 ****        -1.1785   2.8704  -2.5974 H              1 S1                 0.0000
     53 ****        -1.7033   3.1691  -4.8660 H              1 S1                 0.0000
     54 ****        -3.1916   4.0390  -5.2225 H              1 S1                 0.0000
     55 ****        -3.1419   2.2741  -5.3520 H              1 S1                 0.0000
     56 ****         3.7512  -4.5438   2.1696 H              1 S1                 0.0000
     57 ****         1.6257  -0.7914  -0.4075 H              1 S1                 0.0000
     58 ****        -4.9460   2.6378   1.2682 H              1 S1                 0.0000
     59 ****        -0.0565  -0.4708  -0.9652 LP             1 S1                 0.0000
     60 ****         0.0089   0.9439  -1.7782 LP             1 S1                 0.0000
     61 ****         4.4479  -1.7914   1.7255 LP             1 S1                 0.0000
     62 ****         4.2915  -3.2680   1.0460 LP             1 S1                 0.0000
@<TRIPOS>BOND
    1    1    2 1     
    2    1   26 1     
    3    1   27 1     
    4    1   28 1     
    5    2   24 ar    
    6    2    3 ar    
    7    3    4 ar    
    8    3   29 1     
    9    4   22 ar    
   10    4    5 1     
   11    5    6 2     
   12    5   58 1     
   13    6    7 1     
   14    6   30 1     
   15    7    8 1     
   16    7   22 1     
   17    8    9 1     
   18    8   31 1     
   19    8   32 1     
   20    9   10 1     
   21    9   11 1     
   22    9   33 1     
   23   10   34 1     
   24   11   12 1     
   25   11   35 1     
   26   11   36 1     
   27   12   21 1     
   28   12   13 1     
   29   12   57 1     
   30   13   14 1     
   31   13   37 1     
   32   13   38 1     
   33   14   15 1     
   34   14   39 1     
   35   14   40 1     
   36   15   16 1     
   37   16   17 1     
   38   16   21 1     
   39   16   41 1     
   40   17   18 1     
   41   17   42 1     
   42   17   43 1     
   43   18   19 1     
   44   18   20 1     
   45   18   56 1     
   46   19   44 1     
   47   19   45 1     
   48   19   46 1     
   49   20   47 1     
   50   20   48 1     
   51   20   49 1     
   52   21   50 1     
   53   21   51 1     
   54   22   23 ar    
   55   23   24 ar    
   56   23   52 1     
   57   24   25 1     
   58   25   53 1     
   59   25   54 1     
   60   25   55 1     
   61   10   59 1     
   62   10   60 1     
   63   15   61 1     
   64   15   62 1     
@<TRIPOS>SUBSTRUCTURE
      1 S1             1
@<TRIPOS>SET
LONE_PAIRS      STATIC     ATOMS    <user>   **** ""
4 59 60 61 62
DONOR_HYDROGENS      STATIC     ATOMS    <user>   **** ""
4 58 34 57 56
ATOM$BLUE        STATIC     ATOMS    COLORGROUP SYSTEM
4 59 60 61 62
ATOM$RED        STATIC     ATOMS    COLORGROUP SYSTEM
4 58 34 57 56
