#       Name:                AV-unprocessed.smi:167
#       Creating user name   scv26
#       Creation time:       Thu Mar 26 19:13:34 2020


#       File generated by GOLD software.
#

@<TRIPOS>MOLECULE
AV-unprocessed.smi:167
    61    65     1
SMALL
NO_CHARGES


@<TRIPOS>ATOM
      1 ****        -3.4394  -2.5819   3.1789 O.3            1 S1                 0.0000
      2 ****        -3.9483  -1.2734   3.3256 C.3            1 S1                 0.0000
      3 ****        -3.2919  -0.3298   2.3010 C.3            1 S1                 0.0000
      4 ****        -3.7890   1.1267   2.3521 C.3            1 S1                 0.0000
      5 ****        -4.1044   1.3960   0.8643 C.3            1 S1                 0.0000
      6 ****        -5.4323   0.7076   0.5097 C.3            1 S1                 0.0000
      7 ****        -4.9943  -0.7623   0.4390 C.3            1 S1                 0.0000
      8 ****        -3.4995  -0.6553   0.7994 C.3            1 S1                 0.0000
      9 ****        -3.1316   0.5886   0.1383 N.3            1 S1                 0.0000
     10 ****        -1.8293   0.9811   0.0594 C.ar           1 S1                 0.0000
     11 ****        -1.5353   2.3002   0.2110 N.ar           1 S1                 0.0000
     12 ****        -0.2719   2.7278   0.1453 C.ar           1 S1                 0.0000
     13 ****         0.8372   2.0202  -0.0708 N.ar           1 S1                 0.0000
     14 ****         0.5522   0.6986  -0.2456 C.ar           1 S1                 0.0000
     15 ****        -0.7391   0.0976  -0.1966 C.ar           1 S1                 0.0000
     16 ****        -0.6220  -1.2694  -0.4215 N.2            1 S1                 0.0000
     17 ****         0.6585  -1.4665  -0.5738 C.2            1 S1                 0.0000
     18 ****         1.4358  -0.3331  -0.5085 N.pl3          1 S1                 0.0000
     19 ****         2.8638  -0.2537  -0.6088 C.3            1 S1                 0.0000
     20 ****         3.5266   0.7409  -1.5660 C.3            1 S1                 0.0000
     21 ****         4.6917  -0.2551  -1.7742 C.3            1 S1                 0.0000
     22 ****         5.2580  -0.3942  -3.2013 C.3            1 S1                 0.0000
     23 ****         4.2499  -0.6104  -4.1682 O.3            1 S1                 0.0000
     24 ****         5.8923  -0.0767  -0.8253 C.3            1 S1                 0.0000
     25 ****         6.5419   1.1603  -1.0371 O.3            1 S1                 0.0000
     26 ****         3.6831  -1.3361  -1.3207 C.3            1 S1                 0.0000
     27 ****        -3.8461  -3.1371   3.8266 H              1 S1                 0.0000
     28 ****        -5.0336  -1.2882   3.2345 H              1 S1                 0.0000
     29 ****        -3.7275  -0.9314   4.3370 H              1 S1                 0.0000
     30 ****        -2.2187  -0.3279   2.5005 H              1 S1                 0.0000
     31 ****        -4.6618   1.2640   2.9917 H              1 S1                 0.0000
     32 ****        -3.0014   1.7872   2.7170 H              1 S1                 0.0000
     33 ****        -4.1083   2.4561   0.6076 H              1 S1                 0.0000
     34 ****        -6.2120   0.8846   1.2513 H              1 S1                 0.0000
     35 ****        -5.8015   1.0445  -0.4598 H              1 S1                 0.0000
     36 ****        -5.5654  -1.4175   1.0948 H              1 S1                 0.0000
     37 ****        -5.1116  -1.1389  -0.5780 H              1 S1                 0.0000
     38 ****        -2.9492  -1.5363   0.4751 H              1 S1                 0.0000
     39 ****        -0.1296   3.7896   0.2836 H              1 S1                 0.0000
     40 ****         1.0686  -2.4510  -0.7461 H              1 S1                 0.0000
     41 ****         3.2261  -0.1042   0.4096 H              1 S1                 0.0000
     42 ****         2.9283   0.9087  -2.4631 H              1 S1                 0.0000
     43 ****         3.8026   1.6895  -1.1048 H              1 S1                 0.0000
     44 ****         5.8056   0.5014  -3.4954 H              1 S1                 0.0000
     45 ****         5.9609  -1.2258  -3.2605 H              1 S1                 0.0000
     46 ****         4.6587  -0.6807  -5.0174 H              1 S1                 0.0000
     47 ****         5.5834  -0.1156   0.2195 H              1 S1                 0.0000
     48 ****         6.6186  -0.8794  -0.9574 H              1 S1                 0.0000
     49 ****         5.9237   1.8558  -0.8707 H              1 S1                 0.0000
     50 ****         4.0943  -2.0966  -0.6561 H              1 S1                 0.0000
     51 ****         3.1357  -1.7980  -2.1437 H              1 S1                 0.0000
     52 ****        -2.4487  -2.5755   3.3146 LP             1 S1                 0.0000
     53 ****        -3.6482  -2.9240   2.2627 LP             1 S1                 0.0000
     54 ****        -3.1717   0.6025  -0.8608 LP             1 S1                 0.0000
     55 ****        -2.2724   2.9563   0.3732 LP             1 S1                 0.0000
     56 ****         1.7582   2.4084  -0.1008 LP             1 S1                 0.0000
     57 ****        -1.3548  -1.9489  -0.4583 LP             1 S1                 0.0000
     58 ****         3.6091   0.1573  -4.1649 LP             1 S1                 0.0000
     59 ****         3.7582  -1.4558  -3.9596 LP             1 S1                 0.0000
     60 ****         6.8644   1.2145  -1.9821 LP             1 S1                 0.0000
     61 ****         7.3196   1.2440  -0.4141 LP             1 S1                 0.0000
@<TRIPOS>BOND
    1    1    2 1     
    2    1   27 1     
    3    2    3 1     
    4    2   28 1     
    5    2   29 1     
    6    3    8 1     
    7    3    4 1     
    8    3   30 1     
    9    4    5 1     
   10    4   31 1     
   11    4   32 1     
   12    5    9 1     
   13    5    6 1     
   14    5   33 1     
   15    6    7 1     
   16    6   34 1     
   17    6   35 1     
   18    7    8 1     
   19    7   36 1     
   20    7   37 1     
   21    8    9 1     
   22    8   38 1     
   23    9   10 1     
   24   10   15 ar    
   25   10   11 ar    
   26   11   12 ar    
   27   12   13 ar    
   28   12   39 1     
   29   13   14 ar    
   30   14   18 1     
   31   14   15 ar    
   32   15   16 1     
   33   16   17 2     
   34   17   18 1     
   35   17   40 1     
   36   18   19 1     
   37   19   26 1     
   38   19   20 1     
   39   19   41 1     
   40   20   21 1     
   41   20   42 1     
   42   20   43 1     
   43   21   22 1     
   44   21   24 1     
   45   21   26 1     
   46   22   23 1     
   47   22   44 1     
   48   22   45 1     
   49   23   46 1     
   50   24   25 1     
   51   24   47 1     
   52   24   48 1     
   53   25   49 1     
   54   26   50 1     
   55   26   51 1     
   56    1   52 1     
   57    1   53 1     
   58    9   54 1     
   59   11   55 1     
   60   13   56 1     
   61   16   57 1     
   62   23   58 1     
   63   23   59 1     
   64   25   60 1     
   65   25   61 1     
@<TRIPOS>SUBSTRUCTURE
      1 S1             1
@<TRIPOS>SET
LONE_PAIRS      STATIC     ATOMS    <user>   **** ""
10 52 53 54 55 56 57 58 59 60 61
DONOR_HYDROGENS      STATIC     ATOMS    <user>   **** ""
3 27 46 49
ATOM$BLUE        STATIC     ATOMS    COLORGROUP SYSTEM
10 52 53 54 55 56 57 58 59 60 61
ATOM$RED        STATIC     ATOMS    COLORGROUP SYSTEM
3 27 46 49
