AV-unprocessed.smi:1645|AV-procd|sdf|6621|dock9
  -GOLD-   22720 7323D 1   1.00000     0.00000
 Structure written by MMmdl.
 55 58  0  0  0  0  0  0  0  0  4 V2000
  146.4430  139.9316  153.4310 O   0  0  0  0  0  0  0  0  0  0  0  0
  147.1228  138.9517  153.1055 C   0  0  0  0  0  0  0  0  0  0  0  0
  148.4019  138.8482  153.5078 N   0  0  0  0  0  0  0  0  0  0  0  0
  149.1421  139.7048  154.3663 C   0  0  0  0  0  0  0  0  0  0  0  0
  150.3218  139.1978  154.9472 C   0  0  0  0  0  0  0  0  0  0  0  0
  151.0752  140.0053  155.8237 C   0  0  0  0  0  0  0  0  0  0  0  0
  150.6357  141.3187  156.1281 C   0  0  0  0  0  0  0  0  0  0  0  0
  151.3254  142.2016  156.9898 N   0  0  0  0  0  0  0  0  0  0  0  0
  151.6095  141.7449  158.3517 C   0  0  0  0  0  0  0  0  0  0  0  0
  152.6916  142.6088  159.0225 C   0  0  0  0  0  0  0  0  0  0  0  0
  152.3333  144.0993  158.9561 C   0  0  0  0  0  0  0  0  0  0  0  0
  152.0876  144.5103  157.4978 C   0  0  0  0  0  0  0  0  0  0  0  0
  151.0103  143.6267  156.8462 C   0  0  0  0  0  0  0  0  0  0  0  0
  149.4869  141.7536  155.5557 N   0  3  0  0  0  0  0  0  0  0  0  0
  148.7366  141.0153  154.7100 C   0  0  0  0  0  0  0  0  0  0  0  0
  146.7450  137.9030  152.3261 N   0  5  0  0  0  0  0  0  0  0  0  0
  145.7707  136.8813  152.7163 C   0  0  1  0  0  0  0  0  0  0  0  0
  144.3673  137.4703  152.8766 C   0  0  0  0  0  0  0  0  0  0  0  0
  143.4565  136.2667  152.6369 C   0  0  0  0  0  0  0  0  0  0  0  0
  144.1401  135.4722  151.5944 N   0  3  2  0  0  0  0  0  0  0  0  0
  143.8138  134.0240  151.6000 C   0  0  0  0  0  0  0  0  0  0  0  0
  144.6459  133.2827  150.5394 C   0  0  0  0  0  0  0  0  0  0  0  0
  146.1645  133.4827  150.7268 C   0  0  0  0  0  0  0  0  0  0  0  0
  146.4979  134.5607  151.7742 C   0  0  0  0  0  0  0  0  0  0  0  0
  145.5929  135.8103  151.6153 C   0  0  2  0  0  0  0  0  0  0  0  0
  148.9182  138.0771  153.1106 H   0  0  0  0  0  0  0  0  0  0  0  0
  150.6535  138.1947  154.7207 H   0  0  0  0  0  0  0  0  0  0  0  0
  151.9738  139.5918  156.2558 H   0  0  0  0  0  0  0  0  0  0  0  0
  150.6892  141.7743  158.9367 H   0  0  0  0  0  0  0  0  0  0  0  0
  151.9563  140.7114  158.3391 H   0  0  0  0  0  0  0  0  0  0  0  0
  152.8235  142.3017  160.0602 H   0  0  0  0  0  0  0  0  0  0  0  0
  153.6491  142.4428  158.5270 H   0  0  0  0  0  0  0  0  0  0  0  0
  151.4401  144.2922  159.5515 H   0  0  0  0  0  0  0  0  0  0  0  0
  153.1347  144.6995  159.3881 H   0  0  0  0  0  0  0  0  0  0  0  0
  151.7884  145.5576  157.4497 H   0  0  0  0  0  0  0  0  0  0  0  0
  153.0177  144.4281  156.9335 H   0  0  0  0  0  0  0  0  0  0  0  0
  150.9153  143.9161  155.7997 H   0  0  0  0  0  0  0  0  0  0  0  0
  150.0429  143.8163  157.3131 H   0  0  0  0  0  0  0  0  0  0  0  0
  147.8388  141.4994  154.3557 H   0  0  0  0  0  0  0  0  0  0  0  0
  146.0334  136.3784  153.6487 H   0  0  0  0  0  0  0  0  0  0  0  0
  144.2106  137.9289  153.8535 H   0  0  0  0  0  0  0  0  0  0  0  0
  144.1765  138.2286  152.1151 H   0  0  0  0  0  0  0  0  0  0  0  0
  143.3440  135.6808  153.5530 H   0  0  0  0  0  0  0  0  0  0  0  0
  142.4578  136.5621  152.3138 H   0  0  0  0  0  0  0  0  0  0  0  0
  144.0044  133.6011  152.5877 H   0  0  0  0  0  0  0  0  0  0  0  0
  142.7494  133.8956  151.4021 H   0  0  0  0  0  0  0  0  0  0  0  0
  144.4059  132.2190  150.5521 H   0  0  0  0  0  0  0  0  0  0  0  0
  144.3580  133.6438  149.5512 H   0  0  0  0  0  0  0  0  0  0  0  0
  146.6331  132.5424  151.0188 H   0  0  0  0  0  0  0  0  0  0  0  0
  146.6086  133.7544  149.7686 H   0  0  0  0  0  0  0  0  0  0  0  0
  146.3781  134.1216  152.7672 H   0  0  0  0  0  0  0  0  0  0  0  0
  147.5522  134.8310  151.6907 H   0  0  0  0  0  0  0  0  0  0  0  0
  145.7950  136.2547  150.6388 H   0  0  0  0  0  0  0  0  0  0  0  0
  143.8090  135.8347  150.7120 H   0  0  0  0  0  0  0  0  0  0  0  0
  149.1670  142.6966  155.7762 H   0  0  0  0  0  0  0  0  0  0  0  0
  1  2  2  0  0  0  0
  2  3  1  0  0  0  0
  2 16  1  0  0  0  0
  3  4  1  0  0  0  0
  3 26  1  0  0  0  0
  4 15  1  0  0  0  0
  4  5  2  0  0  0  0
  5  6  1  0  0  0  0
  5 27  1  0  0  0  0
  6  7  2  0  0  0  0
  6 28  1  0  0  0  0
  7  8  1  0  0  0  0
  7 14  1  0  0  0  0
  8 13  1  0  0  0  0
  8  9  1  0  0  0  0
  9 10  1  0  0  0  0
  9 29  1  0  0  0  0
  9 30  1  0  0  0  0
 10 11  1  0  0  0  0
 10 31  1  0  0  0  0
 10 32  1  0  0  0  0
 11 12  1  0  0  0  0
 11 33  1  0  0  0  0
 11 34  1  0  0  0  0
 12 13  1  0  0  0  0
 12 35  1  0  0  0  0
 12 36  1  0  0  0  0
 13 37  1  0  0  0  0
 13 38  1  0  0  0  0
 14 15  2  0  0  0  0
 14 55  1  0  0  0  0
 15 39  1  0  0  0  0
 16 17  1  0  0  0  0
 17 25  1  0  0  0  0
 17 18  1  0  0  0  0
 17 40  1  0  0  0  0
 18 19  1  0  0  0  0
 18 41  1  0  0  0  0
 18 42  1  0  0  0  0
 19 20  1  0  0  0  0
 19 43  1  0  0  0  0
 19 44  1  0  0  0  0
 20 25  1  0  0  0  0
 20 21  1  0  0  0  0
 20 54  1  0  0  0  0
 21 22  1  0  0  0  0
 21 45  1  0  0  0  0
 21 46  1  0  0  0  0
 22 23  1  0  0  0  0
 22 47  1  0  0  0  0
 22 48  1  0  0  0  0
 23 24  1  0  0  0  0
 23 49  1  0  0  0  0
 23 50  1  0  0  0  0
 24 25  1  0  0  0  0
 24 51  1  0  0  0  0
 24 52  1  0  0  0  0
 25 53  1  0  0  0  0
M  CHG  1  14   1
M  CHG  1  16  -1
M  CHG  1  20   1
M  END
> <s_m_source_file>
AV-unprocessed.smi

> <i_m_source_file_index>
1645

> <i_lp_mmshare_version>
43012

> <i_f3d_flags>
0

> <s_epik_input>
W0NIMl0xW0NIMl1bQ0gyXVtDSDJdW0NASF0oTjEyKVtDQEBIXShbQ0gyXVtDSDJdMilbTkhdQyg9TylbTkhdYzNbY0hdW2NIXWMobltjSF0zKU40W0NIMl1bQ0gyXVtDSDJdW0NIMl1bQ0gyXTQ=

> <s_epik_cmdline>
J2VwaWtfcHl0aG9uJywgJy1waCcsICc3LjAnLCAnLXRuJywgJzgnLCAnLW1hJywgJzIwMCcsICctbWV0YWxfYmluZGluZycsICctaW1hZScsICc8aW5maWxlLm1hZT4nLCAnLW9tYWUnLCAnPG91dGZpbGUubWFlPic=

> <r_lp_tautomer_probability>
0.999994

> <r_epik_Ionization_Penalty>
8.55589

> <r_epik_Ionization_Penalty_Charging>
8.55589

> <r_epik_Ionization_Penalty_Neutral>
3.8092e-06

> <r_epik_State_Penalty>
8.15703

> <r_epik_Charging_Adjusted_Penalty>
16.7129

> <i_epik_Tot_Q>
1

> <i_epik_Tot_abs_Q>
3

> <r_epik_Metal_State_Penalty>
4.13781

> <b_epik_Metal_Only>
1

> <s_lp_Force_Field>
OPLS_2005

> <r_lp_Energy>
56.4964

> <b_lp_Chiralities_Consistent>
1

> <s_lp_Variant>
AV-unprocessed.smi:1645-22

> <Gold.Version>
5.8.1

> <Gold.Id.Protein>
6NUR|6NUR_protein|mol2

> <Gold.PLP.Fitness>
48.9741

> <Gold.PLP.PLP>
-43.2988

> <Gold.PLP.part.hbond>
-2.6833

> <Gold.PLP.part.metal>
0.0000

> <Gold.PLP.part.buried>
-0.0234

> <Gold.PLP.part.nonpolar>
-44.8920

> <Gold.PLP.part.repulsive>
3.8231

> <Gold.PLP.ligand.clash>
0.4510

> <Gold.PLP.ligand.torsion>
1.0320

> <Gold.PLP.Chemscore.Hbond>
2.5513

> <Gold.PLP.Chemscore.CHOScore>
0.0000

> <Gold.PLP.Chemscore.Metal>
0.0000

> <Gold.Chemscore.Hbonds>
donor molecule, donor type, donor heavy atom, donor atom, acceptor molecule, acceptor atom, score
      L1  H     3    26       P1  7948  0.57
      L1  H    14    55       P1  8028  1.92

> <Gold.PLP.Chemscore.Internal.Correction>
0.5366

> <Gold.Rescore>
     Score         DG    S(hbond)    S(metal)    S(lipo)     H(rot)  DE(clash)    DE(int)     intcor
     15.64     -21.77       1.46        0.00     123.15       1.17       3.77       2.36       ----

> <Gold.Chemscore.Fitness>
15.6355

> <Gold.Chemscore.DG>
-21.7714

> <Gold.Chemscore.ZeroCoef>
-5.4800

> <Gold.Chemscore.Hbond>
1.4628

> <Gold.Chemscore.Metal>
0.0000

> <Gold.Chemscore.Lipo>
123.1525

> <Gold.Chemscore.Internal_Hbond>
0.0000

> <Gold.Chemscore.DEClash>
3.7730

> <Gold.Chemscore.DEInternal>
2.3628

> <Gold.Chemscore.Rot>
1.1731

> <Gold.Chemscore.Internal.Correction>
   9.000000E+99

> <Gold.Chemscore.Hbonds>
donor molecule, donor type, donor heavy atom, donor atom, acceptor molecule, acceptor atom, score
      L1  H     3    26       P1  7948  0.53
      L1  H    14    55       P1  8028  0.91

> <Gold.Chemscore.Hbond.Weighted>
-4.8858

> <Gold.Chemscore.Metal.Weighted>
-0.0000

> <Gold.Chemscore.Lipo.Weighted>
-14.4088

> <Gold.Chemscore.Internal_Hbond.Weighted>
0.0000

> <Gold.Chemscore.DEClash.Weighted>
3.7730

> <Gold.Chemscore.DEInternal.Weighted>
2.3628

> <Gold.Chemscore.Rot.Weighted>
3.0032

> <Gold.Chemscore.Internal.Correction.Weighted>
   9.000000E+99

> <Gold.Protein.RotatedTorsions>
[ 6907 6896 6895 6894 ] final  110.54 input  -60.11 | X-H torsion
[ 7974 7965 7964 7962 ] final    3.39 input  175.53 | X-H torsion
[ 8008 7997 7996 7995 ] final -179.87 input   59.86 | X-H torsion
[ 10167 10162 10161 10158 ] final -141.00 input  -65.29 | X-H torsion
[ 10718 10713 10712 10709 ] final  -94.83 input   66.30 | X-H torsion
[ 10763 10752 10751 10750 ] final -125.12 input  -60.55 | X-H torsion
[ 11005 11000 10999 10996 ] final -175.31 input  -57.11 | X-H torsion

> <Gold.Protein.ActiveResidues>
 VAL166  LYS551  ARG553  GLY616  TRP617  ASP618  TYR619  PRO620  LYS621  CYS622 
 ASP623  PHE694  ASN695  SER759  ASP760  ASP761  ALA762  ILE779  LEU786  VAL792 
 PHE793  MET794  SER795  GLU796  ALA797  LYS798  CYS799  TRP800  GLU811  SER814 

> <Gold.Protein.RotatedAtoms>
  152.5014  133.8785  159.7334 H   0  0  0  0  0  0  0  0  0  0  0  0  # atno 6907 bound_to 6896
  150.9254  133.6822  159.2829 H   0  0  0  0  0  0  0  0  0  0  0  0  # atno 6908 bound_to 6896
  151.4184  135.0999  159.9659 H   0  0  0  0  0  0  0  0  0  0  0  0  # atno 6909 bound_to 6896
  146.2445  140.0693  142.8363 H   0  0  0  0  0  0  0  0  0  0  0  0  # atno 7974 bound_to 7965
  156.0355  140.1291  157.0212 H   0  0  0  0  0  0  0  0  0  0  0  0  # atno 8008 bound_to 7997
  154.4368  140.1041  156.6232 H   0  0  0  0  0  0  0  0  0  0  0  0  # atno 8009 bound_to 7997
  155.5744  140.3467  155.4526 H   0  0  0  0  0  0  0  0  0  0  0  0  # atno 8010 bound_to 7997
  139.8227  143.7552  152.2666 H   0  0  0  0  0  0  0  0  0  0  0  0  # atno 10167 bound_to 10162
  156.0033  130.5084  150.5986 H   0  0  0  0  0  0  0  0  0  0  0  0  # atno 10718 bound_to 10713
  154.8732  135.4040  154.3217 H   0  0  0  0  0  0  0  0  0  0  0  0  # atno 10763 bound_to 10752
  153.4044  135.7019  153.6408 H   0  0  0  0  0  0  0  0  0  0  0  0  # atno 10764 bound_to 10752
  153.5137  135.3702  155.2570 H   0  0  0  0  0  0  0  0  0  0  0  0  # atno 10765 bound_to 10752
  140.4647  134.6221  157.4857 H   0  0  0  0  0  0  0  0  0  0  0  0  # atno 11005 bound_to 11000
  145.0831  140.9234  143.4814 LP  0  0  0  0  0  0  0  0  0  0  0  0  # atno 17320 bound_to 7965
  145.0850  139.2932  143.5764 LP  0  0  0  0  0  0  0  0  0  0  0  0  # atno 17321 bound_to 7965
  139.7736  144.7468  151.0189 LP  0  0  0  0  0  0  0  0  0  0  0  0  # atno 17342 bound_to 10162
  140.7812  143.4618  151.0267 LP  0  0  0  0  0  0  0  0  0  0  0  0  # atno 17343 bound_to 10162
  157.3839  131.0785  151.1453 LP  0  0  0  0  0  0  0  0  0  0  0  0  # atno 17370 bound_to 10713
  157.2167  130.6462  149.5795 LP  0  0  0  0  0  0  0  0  0  0  0  0  # atno 17371 bound_to 10713
  139.9923  134.6966  155.9669 LP  0  0  0  0  0  0  0  0  0  0  0  0  # atno 17394 bound_to 11000
  141.1605  133.6539  156.4302 LP  0  0  0  0  0  0  0  0  0  0  0  0  # atno 17395 bound_to 11000

$$$$
