AV-unprocessed.smi:349|AV-procd|sdf|2397|dock3
  -GOLD-   2262022323D 1   1.00000     0.00000
 Structure written by MMmdl.
 43 44  0  0  0  0  0  0  0  0  1 V2000
  144.5113  143.8503  161.8246 C   0  0  0  0  0  0  0  0  0  0  0  0
  144.5238  144.5800  160.4721 C   0  0  0  0  0  0  0  0  0  0  0  0
  145.9340  144.9614  159.9701 C   0  0  1  0  0  0  0  0  0  0  0  0
  146.6270  145.9210  160.9525 C   0  0  0  0  0  0  0  0  0  0  0  0
  146.8157  143.7256  159.7367 C   0  0  0  0  0  0  0  0  0  0  0  0
  146.8582  142.8277  160.5782 O   0  0  0  0  0  0  0  0  0  0  0  0
  147.5192  143.7000  158.5936 N   0  0  0  0  0  0  0  0  0  0  0  0
  148.4383  142.6432  158.1796 C   0  0  0  0  0  0  0  0  0  0  0  0
  149.9079  142.9839  158.4320 C   0  0  0  0  0  0  0  0  0  0  0  0
  150.2399  144.1731  159.1208 C   0  0  0  0  0  0  0  0  0  0  0  0
  151.5890  144.4726  159.3790 C   0  0  0  0  0  0  0  0  0  0  0  0
  152.5669  143.5627  158.9427 C   0  0  0  0  0  0  0  0  0  0  0  0
  152.2708  142.4196  158.2920 N   0  0  0  0  0  0  0  0  0  0  0  0
  150.9716  142.1244  158.0394 C   0  0  0  0  0  0  0  0  0  0  0  0
  150.7135  140.9302  157.3422 N   0  0  0  0  0  0  0  0  0  0  0  0
  151.0955  139.6877  158.0052 C   0  0  0  0  0  0  0  0  0  0  0  0
  150.5675  138.4856  157.2042 C   0  0  0  0  0  0  0  0  0  0  0  0
  151.0533  138.5553  155.8663 O   0  0  0  0  0  0  0  0  0  0  0  0
  150.6216  139.7384  155.1992 C   0  0  0  0  0  0  0  0  0  0  0  0
  151.1409  140.9772  155.9496 C   0  0  0  0  0  0  0  0  0  0  0  0
  143.4972  143.5536  162.0926 H   0  0  0  0  0  0  0  0  0  0  0  0
  144.8897  144.4823  162.6283 H   0  0  0  0  0  0  0  0  0  0  0  0
  145.1222  142.9479  161.7901 H   0  0  0  0  0  0  0  0  0  0  0  0
  144.0484  143.9347  159.7324 H   0  0  0  0  0  0  0  0  0  0  0  0
  143.8951  145.4695  160.5360 H   0  0  0  0  0  0  0  0  0  0  0  0
  145.8225  145.4893  159.0213 H   0  0  0  0  0  0  0  0  0  0  0  0
  147.6253  146.1917  160.6062 H   0  0  0  0  0  0  0  0  0  0  0  0
  146.7273  145.4773  161.9439 H   0  0  0  0  0  0  0  0  0  0  0  0
  146.0589  146.8453  161.0614 H   0  0  0  0  0  0  0  0  0  0  0  0
  147.4180  144.4823  157.9632 H   0  0  0  0  0  0  0  0  0  0  0  0
  148.2137  141.7060  158.6909 H   0  0  0  0  0  0  0  0  0  0  0  0
  148.2407  142.4527  157.1265 H   0  0  0  0  0  0  0  0  0  0  0  0
  149.4718  144.8521  159.4588 H   0  0  0  0  0  0  0  0  0  0  0  0
  151.8660  145.3752  159.9031 H   0  0  0  0  0  0  0  0  0  0  0  0
  153.6141  143.7558  159.1222 H   0  0  0  0  0  0  0  0  0  0  0  0
  152.1820  139.6266  158.0832 H   0  0  0  0  0  0  0  0  0  0  0  0
  150.6937  139.6705  159.0190 H   0  0  0  0  0  0  0  0  0  0  0  0
  150.9053  137.5535  157.6574 H   0  0  0  0  0  0  0  0  0  0  0  0
  149.4766  138.4650  157.2062 H   0  0  0  0  0  0  0  0  0  0  0  0
  151.0035  139.7293  154.1784 H   0  0  0  0  0  0  0  0  0  0  0  0
  149.5325  139.7529  155.1326 H   0  0  0  0  0  0  0  0  0  0  0  0
  150.7779  141.8855  155.4675 H   0  0  0  0  0  0  0  0  0  0  0  0
  152.2307  141.0085  155.9097 H   0  0  0  0  0  0  0  0  0  0  0  0
  1  2  1  0  0  0  0
  1 21  1  0  0  0  0
  1 22  1  0  0  0  0
  1 23  1  0  0  0  0
  2  3  1  0  0  0  0
  2 24  1  0  0  0  0
  2 25  1  0  0  0  0
  3  4  1  0  0  0  0
  3  5  1  0  0  0  0
  3 26  1  0  0  0  0
  4 27  1  0  0  0  0
  4 28  1  0  0  0  0
  4 29  1  0  0  0  0
  5  6  2  0  0  0  0
  5  7  1  0  0  0  0
  7  8  1  0  0  0  0
  7 30  1  0  0  0  0
  8  9  1  0  0  0  0
  8 31  1  0  0  0  0
  8 32  1  0  0  0  0
  9 14  1  0  0  0  0
  9 10  2  0  0  0  0
 10 11  1  0  0  0  0
 10 33  1  0  0  0  0
 11 12  2  0  0  0  0
 11 34  1  0  0  0  0
 12 13  1  0  0  0  0
 12 35  1  0  0  0  0
 13 14  2  0  0  0  0
 14 15  1  0  0  0  0
 15 20  1  0  0  0  0
 15 16  1  0  0  0  0
 16 17  1  0  0  0  0
 16 36  1  0  0  0  0
 16 37  1  0  0  0  0
 17 18  1  0  0  0  0
 17 38  1  0  0  0  0
 17 39  1  0  0  0  0
 18 19  1  0  0  0  0
 19 20  1  0  0  0  0
 19 40  1  0  0  0  0
 19 41  1  0  0  0  0
 20 42  1  0  0  0  0
 20 43  1  0  0  0  0
M  END
> <s_m_source_file>
AV-unprocessed.smi

> <i_m_source_file_index>
349

> <i_lp_mmshare_version>
43012

> <i_f3d_flags>
0

> <s_epik_input>
W0NIM11bQ0gyXVtDQEhdKFtDSDNdKUMoPU8pW05IXVtDSDJdYzFbY0hdW2NIXVtjSF1uYzFOMltDSDJdW0NIMl1PW0NIMl1bQ0gyXTI=

> <s_epik_cmdline>
J2VwaWtfcHl0aG9uJywgJy1waCcsICc3LjAnLCAnLXRuJywgJzgnLCAnLW1hJywgJzIwMCcsICctbWV0YWxfYmluZGluZycsICctaW1hZScsICc8aW5maWxlLm1hZT4nLCAnLW9tYWUnLCAnPG91dGZpbGUubWFlPic=

> <r_lp_tautomer_probability>
1

> <r_epik_Ionization_Penalty>
0.00513869

> <r_epik_Ionization_Penalty_Charging>
0

> <r_epik_Ionization_Penalty_Neutral>
0.00513869

> <r_epik_State_Penalty>
0.00374265

> <r_epik_Charging_Adjusted_Penalty>
0.00374265

> <i_epik_Tot_Q>
0

> <i_epik_Tot_abs_Q>
0

> <r_epik_Metal_State_Penalty>
-0

> <b_epik_Metal_Only>
0

> <s_lp_Force_Field>
OPLS_2005

> <r_lp_Energy>
19.4622

> <b_lp_Chiralities_Consistent>
1

> <s_lp_Variant>
AV-unprocessed.smi:349-2

> <Gold.Version>
5.8.1

> <Gold.Id.Protein>
6NUR|6NUR_protein|mol2

> <Gold.PLP.Fitness>
40.4168

> <Gold.PLP.PLP>
-33.3283

> <Gold.PLP.part.hbond>
-3.0000

> <Gold.PLP.part.metal>
0.0000

> <Gold.PLP.part.buried>
-3.4346

> <Gold.PLP.part.nonpolar>
-27.1672

> <Gold.PLP.part.repulsive>
0.1193

> <Gold.PLP.ligand.clash>
0.0000

> <Gold.PLP.ligand.torsion>
0.6995

> <Gold.PLP.Chemscore.Hbond>
2.7600

> <Gold.PLP.Chemscore.CHOScore>
0.0000

> <Gold.PLP.Chemscore.Metal>
0.0000

> <Gold.Chemscore.Hbonds>
donor molecule, donor type, donor heavy atom, donor atom, acceptor molecule, acceptor atom, score
      L1  H     7    30       P1  8029  1.00
      P1  H  6933  6944       L1     6  0.91
      P1  H  6934  6946       L1     6  0.86

> <Gold.PLP.Chemscore.Internal.Correction>
0.2075

> <Gold.Rescore>
     Score         DG    S(hbond)    S(metal)    S(lipo)     H(rot)  DE(clash)    DE(int)     intcor
     17.85     -20.49       2.57        0.00      90.74       1.64       0.79       1.86       ----

> <Gold.Chemscore.Fitness>
17.8472

> <Gold.Chemscore.DG>
-20.4910

> <Gold.Chemscore.ZeroCoef>
-5.4800

> <Gold.Chemscore.Hbond>
2.5732

> <Gold.Chemscore.Metal>
0.0000

> <Gold.Chemscore.Lipo>
90.7397

> <Gold.Chemscore.Internal_Hbond>
0.0000

> <Gold.Chemscore.DEClash>
0.7855

> <Gold.Chemscore.DEInternal>
1.8584

> <Gold.Chemscore.Rot>
1.6407

> <Gold.Chemscore.Internal.Correction>
   9.000000E+99

> <Gold.Chemscore.Hbonds>
donor molecule, donor type, donor heavy atom, donor atom, acceptor molecule, acceptor atom, score
      L1  H     7    30       P1  8029  0.39
      P1  H  6933  6944       L1     6  0.87
      P1  H  6934  6946       L1     6  0.85

> <Gold.Chemscore.Hbond.Weighted>
-8.5946

> <Gold.Chemscore.Metal.Weighted>
-0.0000

> <Gold.Chemscore.Lipo.Weighted>
-10.6165

> <Gold.Chemscore.Internal_Hbond.Weighted>
0.0000

> <Gold.Chemscore.DEClash.Weighted>
0.7855

> <Gold.Chemscore.DEInternal.Weighted>
1.8584

> <Gold.Chemscore.Rot.Weighted>
4.2001

> <Gold.Chemscore.Internal.Correction.Weighted>
   9.000000E+99

> <Gold.Protein.RotatedTorsions>
[ 6907 6896 6895 6894 ] final   56.42 input  -60.11 | X-H torsion
[ 7974 7965 7964 7962 ] final   51.37 input  175.53 | X-H torsion
[ 8008 7997 7996 7995 ] final  143.47 input   59.86 | X-H torsion
[ 10167 10162 10161 10158 ] final   88.89 input  -65.29 | X-H torsion
[ 10718 10713 10712 10709 ] final  -37.32 input   66.30 | X-H torsion
[ 10763 10752 10751 10750 ] final  155.02 input  -60.55 | X-H torsion
[ 11005 11000 10999 10996 ] final -144.30 input  -57.11 | X-H torsion

> <Gold.Protein.ActiveResidues>
 VAL166  LYS551  ARG553  GLY616  TRP617  ASP618  TYR619  PRO620  LYS621  CYS622 
 ASP623  PHE694  ASN695  SER759  ASP760  ASP761  ALA762  ILE779  LEU786  VAL792 
 PHE793  MET794  SER795  GLU796  ALA797  LYS798  CYS799  TRP800  GLU811  SER814 

> <Gold.Protein.RotatedAtoms>
  152.3634  134.6839  160.0199 H   0  0  0  0  0  0  0  0  0  0  0  0  # atno 6907 bound_to 6896
  151.7155  133.3308  159.3310 H   0  0  0  0  0  0  0  0  0  0  0  0  # atno 6908 bound_to 6896
  150.7621  134.6429  159.6291 H   0  0  0  0  0  0  0  0  0  0  0  0  # atno 6909 bound_to 6896
  145.9919  139.4348  143.0068 H   0  0  0  0  0  0  0  0  0  0  0  0  # atno 7974 bound_to 7965
  156.2929  140.2261  156.4896 H   0  0  0  0  0  0  0  0  0  0  0  0  # atno 8008 bound_to 7997
  154.7782  140.0462  157.1127 H   0  0  0  0  0  0  0  0  0  0  0  0  # atno 8009 bound_to 7997
  154.9790  140.3076  155.4958 H   0  0  0  0  0  0  0  0  0  0  0  0  # atno 8010 bound_to 7997
  139.8628  144.6535  150.9039 H   0  0  0  0  0  0  0  0  0  0  0  0  # atno 10167 bound_to 10162
  156.3166  130.4260  149.7999 H   0  0  0  0  0  0  0  0  0  0  0  0  # atno 10718 bound_to 10713
  154.1617  135.2809  155.3107 H   0  0  0  0  0  0  0  0  0  0  0  0  # atno 10763 bound_to 10752
  154.6142  135.5489  153.7509 H   0  0  0  0  0  0  0  0  0  0  0  0  # atno 10764 bound_to 10752
  153.0190  135.6423  154.1758 H   0  0  0  0  0  0  0  0  0  0  0  0  # atno 10765 bound_to 10752
  140.8039  134.2825  157.4968 H   0  0  0  0  0  0  0  0  0  0  0  0  # atno 11005 bound_to 11000
  145.7616  140.9933  143.1196 LP  0  0  0  0  0  0  0  0  0  0  0  0  # atno 17320 bound_to 7965
  144.6892  139.9338  143.7472 LP  0  0  0  0  0  0  0  0  0  0  0  0  # atno 17321 bound_to 7965
  140.7772  143.3730  151.1615 LP  0  0  0  0  0  0  0  0  0  0  0  0  # atno 17342 bound_to 10162
  139.7358  143.9002  152.3034 LP  0  0  0  0  0  0  0  0  0  0  0  0  # atno 17343 bound_to 10162
  156.5323  130.8263  151.3241 LP  0  0  0  0  0  0  0  0  0  0  0  0  # atno 17370 bound_to 10713
  157.7403  130.9847  150.2368 LP  0  0  0  0  0  0  0  0  0  0  0  0  # atno 17371 bound_to 10713
  139.8719  134.9445  156.3882 LP  0  0  0  0  0  0  0  0  0  0  0  0  # atno 17394 bound_to 11000
  140.9267  133.7607  155.9973 LP  0  0  0  0  0  0  0  0  0  0  0  0  # atno 17395 bound_to 11000

$$$$
