AV-unprocessed.smi:442|AV-procd|sdf|2584|dock7
  -GOLD-   2262022573D 1   1.00000     0.00000
 Structure written by MMmdl.
 37 37  0  0  0  0  0  0  0  0  3 V2000
  154.5108  141.1775  161.2826 C   0  0  0  0  0  0  0  0  0  0  0  0
  153.9490  141.2914  159.8582 C   0  0  0  0  0  0  0  0  0  0  0  0
  152.6194  142.0666  159.7676 C   0  0  1  0  0  0  0  0  0  0  0  0
  152.7274  143.4488  160.4261 C   0  0  0  0  0  0  0  0  0  0  0  0
  152.2142  142.2401  158.3748 N   0  0  0  0  0  0  0  0  0  0  0  0
  151.0203  141.9207  157.8445 C   0  0  0  0  0  0  0  0  0  0  0  0
  150.1124  141.4101  158.4990 O   0  0  0  0  0  0  0  0  0  0  0  0
  150.7918  142.2028  156.3491 C   0  0  0  0  0  0  0  0  0  0  0  0
  150.3664  141.0343  155.5529 N   0  0  0  0  0  0  0  0  0  0  0  0
  151.2353  139.9285  155.5540 C   0  0  0  0  0  0  0  0  0  0  0  0
  150.9691  138.8061  154.8635 C   0  0  0  0  0  0  0  0  0  0  0  0
  151.8858  137.6860  154.8715 N   0  3  0  0  0  0  0  0  0  0  0  0
  153.0447  137.8749  155.2267 O   0  0  0  0  0  0  0  0  0  0  0  0
  151.4792  136.5812  154.5245 O   0  5  0  0  0  0  0  0  0  0  0  0
  149.7382  138.7561  154.1019 C   0  0  0  0  0  0  0  0  0  0  0  0
  148.8874  139.8138  154.0802 C   0  0  0  0  0  0  0  0  0  0  0  0
  147.6214  139.8081  153.3131 C   0  0  0  0  0  0  0  0  0  0  0  0
  147.4541  138.7332  152.5327 N   0  0  0  0  0  0  0  0  0  0  0  0
  146.7435  140.6706  153.3282 O   0  0  0  0  0  0  0  0  0  0  0  0
  149.1957  141.0550  154.8415 C   0  0  0  0  0  0  0  0  0  0  0  0
  148.4863  142.0643  154.8605 O   0  0  0  0  0  0  0  0  0  0  0  0
  155.4777  140.6746  161.2771 H   0  0  0  0  0  0  0  0  0  0  0  0
  153.8479  140.6053  161.9317 H   0  0  0  0  0  0  0  0  0  0  0  0
  154.6510  142.1620  161.7296 H   0  0  0  0  0  0  0  0  0  0  0  0
  154.6932  141.7879  159.2346 H   0  0  0  0  0  0  0  0  0  0  0  0
  153.8234  140.2918  159.4400 H   0  0  0  0  0  0  0  0  0  0  0  0
  151.8573  141.5071  160.3128 H   0  0  0  0  0  0  0  0  0  0  0  0
  153.0066  143.3629  161.4766 H   0  0  0  0  0  0  0  0  0  0  0  0
  151.7759  143.9797  160.3816 H   0  0  0  0  0  0  0  0  0  0  0  0
  153.4772  144.0677  159.9318 H   0  0  0  0  0  0  0  0  0  0  0  0
  152.9000  142.6524  157.7594 H   0  0  0  0  0  0  0  0  0  0  0  0
  150.0507  142.9995  156.2696 H   0  0  0  0  0  0  0  0  0  0  0  0
  151.7040  142.6367  155.9359 H   0  0  0  0  0  0  0  0  0  0  0  0
  152.1305  140.0640  156.1440 H   0  0  0  0  0  0  0  0  0  0  0  0
  149.5202  137.8528  153.5524 H   0  0  0  0  0  0  0  0  0  0  0  0
  146.6212  138.6384  151.9704 H   0  0  0  0  0  0  0  0  0  0  0  0
  148.1666  138.0179  152.5103 H   0  0  0  0  0  0  0  0  0  0  0  0
  1  2  1  0  0  0  0
  1 22  1  0  0  0  0
  1 23  1  0  0  0  0
  1 24  1  0  0  0  0
  2  3  1  0  0  0  0
  2 25  1  0  0  0  0
  2 26  1  0  0  0  0
  3  4  1  0  0  0  0
  3  5  1  0  0  0  0
  3 27  1  0  0  0  0
  4 28  1  0  0  0  0
  4 29  1  0  0  0  0
  4 30  1  0  0  0  0
  5  6  1  0  0  0  0
  5 31  1  0  0  0  0
  6  7  2  0  0  0  0
  6  8  1  0  0  0  0
  8  9  1  0  0  0  0
  8 32  1  0  0  0  0
  8 33  1  0  0  0  0
  9 20  1  0  0  0  0
  9 10  1  0  0  0  0
 10 11  2  0  0  0  0
 10 34  1  0  0  0  0
 11 12  1  0  0  0  0
 11 15  1  0  0  0  0
 12 13  2  0  0  0  0
 12 14  1  0  0  0  0
 15 16  2  0  0  0  0
 15 35  1  0  0  0  0
 16 17  1  0  0  0  0
 16 20  1  0  0  0  0
 17 18  1  0  0  0  0
 17 19  2  0  0  0  0
 18 36  1  0  0  0  0
 18 37  1  0  0  0  0
 20 21  2  0  0  0  0
M  CHG  1  12   1
M  CHG  1  14  -1
M  END
> <s_m_source_file>
AV-unprocessed.smi

> <i_m_source_file_index>
442

> <i_lp_mmshare_version>
43012

> <i_f3d_flags>
0

> <s_epik_input>
W0NIM11bQ0gyXVtDQEhdKFtDSDNdKVtOSF1DKD1PKVtDSDJdbjFbY0hdYyhbTitdKD1PKVtPLV0pW2NIXWMoYzE9TylDKD1PKVtOSDJd

> <s_epik_cmdline>
J2VwaWtfcHl0aG9uJywgJy1waCcsICc3LjAnLCAnLXRuJywgJzgnLCAnLW1hJywgJzIwMCcsICctbWV0YWxfYmluZGluZycsICctaW1hZScsICc8aW5maWxlLm1hZT4nLCAnLW9tYWUnLCAnPG91dGZpbGUubWFlPic=

> <r_lp_tautomer_probability>
1

> <r_epik_Ionization_Penalty>
2.86914e-06

> <r_epik_Ionization_Penalty_Charging>
2.2828e-12

> <r_epik_Ionization_Penalty_Neutral>
2.86914e-06

> <r_epik_State_Penalty>
-0

> <r_epik_Charging_Adjusted_Penalty>
2.2828e-12

> <i_epik_Tot_Q>
0

> <i_epik_Tot_abs_Q>
2

> <r_epik_Metal_State_Penalty>
-0

> <b_epik_Metal_Only>
0

> <s_lp_Force_Field>
OPLS_2005

> <r_lp_Energy>
22.4314

> <b_lp_Chiralities_Consistent>
1

> <s_lp_Variant>
AV-unprocessed.smi:442-2

> <Gold.Version>
5.8.1

> <Gold.Id.Protein>
6NUR|6NUR_protein|mol2

> <Gold.PLP.Fitness>
46.2995

> <Gold.PLP.PLP>
-40.8774

> <Gold.PLP.part.hbond>
-4.0419

> <Gold.PLP.part.metal>
0.0000

> <Gold.PLP.part.buried>
-0.0690

> <Gold.PLP.part.nonpolar>
-38.6233

> <Gold.PLP.part.repulsive>
2.9604

> <Gold.PLP.ligand.clash>
0.0000

> <Gold.PLP.ligand.torsion>
0.2984

> <Gold.PLP.Chemscore.Hbond>
1.9920

> <Gold.PLP.Chemscore.CHOScore>
0.0000

> <Gold.PLP.Chemscore.Metal>
0.0000

> <Gold.Chemscore.Hbonds>
donor molecule, donor type, donor heavy atom, donor atom, acceptor molecule, acceptor atom, score
      L1  H    18    37       P1  7948  0.99
      P1  H 10752 10764       L1    14  1.00

> <Gold.PLP.Chemscore.Internal.Correction>
0.0429

> <Gold.Rescore>
     Score         DG    S(hbond)    S(metal)    S(lipo)     H(rot)  DE(clash)    DE(int)     intcor
     12.53     -14.40       1.64        0.00      74.01       2.03       0.10       1.78       ----

> <Gold.Chemscore.Fitness>
12.5251

> <Gold.Chemscore.DG>
-14.4032

> <Gold.Chemscore.ZeroCoef>
-5.4800

> <Gold.Chemscore.Hbond>
1.6381

> <Gold.Chemscore.Metal>
0.0000

> <Gold.Chemscore.Lipo>
74.0090

> <Gold.Chemscore.Internal_Hbond>
0.0000

> <Gold.Chemscore.DEClash>
0.0954

> <Gold.Chemscore.DEInternal>
1.7827

> <Gold.Chemscore.Rot>
2.0340

> <Gold.Chemscore.Internal.Correction>
   9.000000E+99

> <Gold.Chemscore.Hbonds>
donor molecule, donor type, donor heavy atom, donor atom, acceptor molecule, acceptor atom, score
      L1  H    18    37       P1  7948  0.90
      P1  H 10752 10764       L1    14  0.33

> <Gold.Chemscore.Hbond.Weighted>
-5.4712

> <Gold.Chemscore.Metal.Weighted>
-0.0000

> <Gold.Chemscore.Lipo.Weighted>
-8.6591

> <Gold.Chemscore.Internal_Hbond.Weighted>
0.0000

> <Gold.Chemscore.DEClash.Weighted>
0.0954

> <Gold.Chemscore.DEInternal.Weighted>
1.7827

> <Gold.Chemscore.Rot.Weighted>
5.2071

> <Gold.Chemscore.Internal.Correction.Weighted>
   9.000000E+99

> <Gold.Protein.RotatedTorsions>
[ 6907 6896 6895 6894 ] final -103.48 input  -60.11 | X-H torsion
[ 7974 7965 7964 7962 ] final -111.07 input  175.53 | X-H torsion
[ 8008 7997 7996 7995 ] final  160.53 input   59.86 | X-H torsion
[ 10167 10162 10161 10158 ] final  -91.97 input  -65.29 | X-H torsion
[ 10718 10713 10712 10709 ] final   25.27 input   66.30 | X-H torsion
[ 10763 10752 10751 10750 ] final  -51.45 input  -60.55 | X-H torsion
[ 11005 11000 10999 10996 ] final  -51.33 input  -57.11 | X-H torsion

> <Gold.Protein.ActiveResidues>
 VAL166  LYS551  ARG553  GLY616  TRP617  ASP618  TYR619  PRO620  LYS621  CYS622 
 ASP623  PHE694  ASN695  SER759  ASP760  ASP761  ALA762  ILE779  LEU786  VAL792 
 PHE793  MET794  SER795  GLU796  ALA797  LYS798  CYS799  TRP800  GLU811  SER814 

> <Gold.Protein.RotatedAtoms>
  150.7242  134.0422  159.3769 H   0  0  0  0  0  0  0  0  0  0  0  0  # atno 6907 bound_to 6896
  151.8396  135.0592  160.0456 H   0  0  0  0  0  0  0  0  0  0  0  0  # atno 6908 bound_to 6896
  152.2872  133.5491  159.5571 H   0  0  0  0  0  0  0  0  0  0  0  0  # atno 6909 bound_to 6896
  145.1605  140.8876  143.3593 H   0  0  0  0  0  0  0  0  0  0  0  0  # atno 7974 bound_to 7965
  156.2166  140.1801  156.7575 H   0  0  0  0  0  0  0  0  0  0  0  0  # atno 8008 bound_to 7997
  154.5800  140.0668  156.9119 H   0  0  0  0  0  0  0  0  0  0  0  0  # atno 8009 bound_to 7997
  155.2519  140.3329  155.4284 H   0  0  0  0  0  0  0  0  0  0  0  0  # atno 8010 bound_to 7997
  140.3395  143.2950  151.9851 H   0  0  0  0  0  0  0  0  0  0  0  0  # atno 10167 bound_to 10162
  157.1910  130.6846  149.6150 H   0  0  0  0  0  0  0  0  0  0  0  0  # atno 10718 bound_to 10713
  154.1267  135.6526  153.4914 H   0  0  0  0  0  0  0  0  0  0  0  0  # atno 10763 bound_to 10752
  153.0208  135.5283  154.7042 H   0  0  0  0  0  0  0  0  0  0  0  0  # atno 10764 bound_to 10752
  154.6265  135.2971  155.0236 H   0  0  0  0  0  0  0  0  0  0  0  0  # atno 10765 bound_to 10752
  141.0865  133.6641  156.3861 H   0  0  0  0  0  0  0  0  0  0  0  0  # atno 11005 bound_to 11000
  145.0336  139.3320  143.6012 LP  0  0  0  0  0  0  0  0  0  0  0  0  # atno 17320 bound_to 7965
  146.3483  139.9682  142.8709 LP  0  0  0  0  0  0  0  0  0  0  0  0  # atno 17321 bound_to 7965
  139.4843  144.6169  151.7330 LP  0  0  0  0  0  0  0  0  0  0  0  0  # atno 17342 bound_to 10162
  140.5322  144.0712  150.6058 LP  0  0  0  0  0  0  0  0  0  0  0  0  # atno 17343 bound_to 10162
  155.9712  130.4614  150.6109 LP  0  0  0  0  0  0  0  0  0  0  0  0  # atno 17370 bound_to 10713
  157.3860  131.0788  151.1435 LP  0  0  0  0  0  0  0  0  0  0  0  0  # atno 17371 bound_to 10713
  140.5351  134.6175  157.5362 LP  0  0  0  0  0  0  0  0  0  0  0  0  # atno 17394 bound_to 11000
  139.9684  134.7334  156.0091 LP  0  0  0  0  0  0  0  0  0  0  0  0  # atno 17395 bound_to 11000

$$$$
