AV-unprocessed.smi:246|AV-procd|sdf|1886|dock4
  -GOLD-   2262020543D 1   1.00000     0.00000
 Structure written by MMmdl.
 57 60  0  0  0  0  0  0  0  0  1 V2000
  151.2313  145.1701  159.9783 C   0  0  0  0  0  0  0  0  0  0  0  0
  152.1344  144.6747  158.8407 C   0  0  0  0  0  0  0  0  0  0  0  0
  151.9187  143.2977  158.5672 O   0  0  0  0  0  0  0  0  0  0  0  0
  150.8133  143.0395  157.7140 C   0  0  0  0  0  0  0  0  0  0  0  0
  150.7194  141.5298  157.4780 C   0  0  0  0  0  0  0  0  0  0  0  0
  149.5052  141.2529  156.7975 O   0  0  0  0  0  0  0  0  0  0  0  0
  149.6232  141.2564  155.3815 C   0  0  1  0  0  0  0  0  0  0  0  0
  150.6923  140.2579  154.9238 C   0  0  0  0  0  0  0  0  0  0  0  0
  149.9353  138.9341  154.8753 C   0  0  0  0  0  0  0  0  0  0  0  0
  148.5861  139.2962  154.4662 N   0  0  0  0  0  0  0  0  0  0  0  0
  147.5814  138.3811  154.4690 C   0  0  0  0  0  0  0  0  0  0  0  0
  147.2913  137.7299  155.6271 N   0  0  0  0  0  0  0  0  0  0  0  0
  146.3084  136.8266  155.6716 C   0  0  0  0  0  0  0  0  0  0  0  0
  145.5020  136.4227  154.6893 N   0  0  0  0  0  0  0  0  0  0  0  0
  145.7909  137.0615  153.5199 C   0  0  0  0  0  0  0  0  0  0  0  0
  146.8091  138.0382  153.3192 C   0  0  0  0  0  0  0  0  0  0  0  0
  146.8159  138.4362  151.9862 N   0  0  0  0  0  0  0  0  0  0  0  0
  145.8539  137.7471  151.4378 C   0  0  0  0  0  0  0  0  0  0  0  0
  145.1744  136.9076  152.2902 N   0  0  0  0  0  0  0  0  0  0  0  0
  144.0631  136.0337  151.9485 C   0  0  0  0  0  0  0  0  0  0  0  0
  144.3439  135.0669  150.7745 C   0  0  1  0  0  0  0  0  0  0  0  0
  144.5659  135.7733  149.5693 O   0  0  0  0  0  0  0  0  0  0  0  0
  145.4778  134.0441  151.0169 C   0  0  1  0  0  0  0  0  0  0  0  0
  145.3234  133.1580  152.2568 C   0  0  0  0  0  0  0  0  0  0  0  0
  146.1828  131.9697  151.8875 C   0  0  0  0  0  0  0  0  0  0  0  0
  145.8863  131.8286  150.3977 C   0  0  0  0  0  0  0  0  0  0  0  0
  145.6718  133.1530  149.9207 O   0  0  0  0  0  0  0  0  0  0  0  0
  148.3182  140.6880  154.8066 C   0  0  0  0  0  0  0  0  0  0  0  0
  149.8052  142.2667  155.0105 H   0  0  0  0  0  0  0  0  0  0  0  0
  151.4673  146.2030  160.2343 H   0  0  0  0  0  0  0  0  0  0  0  0
  151.3682  144.5654  160.8751 H   0  0  0  0  0  0  0  0  0  0  0  0
  150.1768  145.1331  159.7067 H   0  0  0  0  0  0  0  0  0  0  0  0
  152.0057  145.2799  157.9420 H   0  0  0  0  0  0  0  0  0  0  0  0
  153.1753  144.7891  159.1442 H   0  0  0  0  0  0  0  0  0  0  0  0
  149.8790  143.4134  158.1336 H   0  0  0  0  0  0  0  0  0  0  0  0
  150.9718  143.5478  156.7619 H   0  0  0  0  0  0  0  0  0  0  0  0
  151.5537  141.2026  156.8561 H   0  0  0  0  0  0  0  0  0  0  0  0
  150.7879  140.9934  158.4251 H   0  0  0  0  0  0  0  0  0  0  0  0
  151.0278  140.5204  153.9197 H   0  0  0  0  0  0  0  0  0  0  0  0
  151.5703  140.2190  155.5683 H   0  0  0  0  0  0  0  0  0  0  0  0
  150.3944  138.2324  154.1780 H   0  0  0  0  0  0  0  0  0  0  0  0
  149.9106  138.4749  155.8648 H   0  0  0  0  0  0  0  0  0  0  0  0
  146.1438  136.3625  156.6328 H   0  0  0  0  0  0  0  0  0  0  0  0
  145.6027  137.8428  150.3915 H   0  0  0  0  0  0  0  0  0  0  0  0
  143.7881  135.4648  152.8374 H   0  0  0  0  0  0  0  0  0  0  0  0
  143.2019  136.6605  151.7134 H   0  0  0  0  0  0  0  0  0  0  0  0
  143.4295  134.4943  150.6153 H   0  0  0  0  0  0  0  0  0  0  0  0
  145.2479  135.3342  149.0842 H   0  0  0  0  0  0  0  0  0  0  0  0
  146.4146  134.5940  151.1207 H   0  0  0  0  0  0  0  0  0  0  0  0
  145.6460  133.6510  153.1742 H   0  0  0  0  0  0  0  0  0  0  0  0
  144.2910  132.8331  152.3903 H   0  0  0  0  0  0  0  0  0  0  0  0
  147.2366  132.2049  152.0426 H   0  0  0  0  0  0  0  0  0  0  0  0
  145.9434  131.0715  152.4574 H   0  0  0  0  0  0  0  0  0  0  0  0
  146.6911  131.3330  149.8546 H   0  0  0  0  0  0  0  0  0  0  0  0
  144.9713  131.2546  150.2459 H   0  0  0  0  0  0  0  0  0  0  0  0
  147.4956  140.7900  155.5157 H   0  0  0  0  0  0  0  0  0  0  0  0
  148.0458  141.2184  153.8938 H   0  0  0  0  0  0  0  0  0  0  0  0
  1  2  1  0  0  0  0
  1 30  1  0  0  0  0
  1 31  1  0  0  0  0
  1 32  1  0  0  0  0
  2  3  1  0  0  0  0
  2 33  1  0  0  0  0
  2 34  1  0  0  0  0
  3  4  1  0  0  0  0
  4  5  1  0  0  0  0
  4 35  1  0  0  0  0
  4 36  1  0  0  0  0
  5  6  1  0  0  0  0
  5 37  1  0  0  0  0
  5 38  1  0  0  0  0
  6  7  1  0  0  0  0
  7 29  1  0  0  0  0
  7 28  1  0  0  0  0
  7  8  1  0  0  0  0
  8  9  1  0  0  0  0
  8 39  1  0  0  0  0
  8 40  1  0  0  0  0
  9 10  1  0  0  0  0
  9 41  1  0  0  0  0
  9 42  1  0  0  0  0
 10 11  1  0  0  0  0
 10 28  1  0  0  0  0
 11 16  1  0  0  0  0
 11 12  2  0  0  0  0
 12 13  1  0  0  0  0
 13 14  2  0  0  0  0
 13 43  1  0  0  0  0
 14 15  1  0  0  0  0
 15 19  1  0  0  0  0
 15 16  2  0  0  0  0
 16 17  1  0  0  0  0
 17 18  2  0  0  0  0
 18 19  1  0  0  0  0
 18 44  1  0  0  0  0
 19 20  1  0  0  0  0
 20 21  1  0  0  0  0
 20 45  1  0  0  0  0
 20 46  1  0  0  0  0
 21 22  1  0  0  0  0
 21 23  1  0  0  0  0
 21 47  1  0  0  0  0
 22 48  1  0  0  0  0
 23 27  1  0  0  0  0
 23 24  1  0  0  0  0
 23 49  1  0  0  0  0
 24 25  1  0  0  0  0
 24 50  1  0  0  0  0
 24 51  1  0  0  0  0
 25 26  1  0  0  0  0
 25 52  1  0  0  0  0
 25 53  1  0  0  0  0
 26 27  1  0  0  0  0
 26 54  1  0  0  0  0
 26 55  1  0  0  0  0
 28 56  1  0  0  0  0
 28 57  1  0  0  0  0
M  END
> <s_m_source_file>
AV-unprocessed.smi

> <i_m_source_file_index>
246

> <i_lp_mmshare_version>
43012

> <i_f3d_flags>
0

> <s_epik_input>
W0NIM11bQ0gyXU9bQ0gyXVtDSDJdT1tDQEhdMVtDSDJdW0NIMl1OKFtDSDJdMSljKG5bY0hdbjIpYyhjMjMpbltjSF1uM1tDSDJdW0NASF0oW09IXSlbQ0BASF00W0NIMl1bQ0gyXVtDSDJdTzQ=

> <s_epik_cmdline>
J2VwaWtfcHl0aG9uJywgJy1waCcsICc3LjAnLCAnLXRuJywgJzgnLCAnLW1hJywgJzIwMCcsICctbWV0YWxfYmluZGluZycsICctaW1hZScsICc8aW5maWxlLm1hZT4nLCAnLW9tYWUnLCAnPG91dGZpbGUubWFlPic=

> <r_lp_tautomer_probability>
1

> <r_epik_Ionization_Penalty>
0.0024631

> <r_epik_Ionization_Penalty_Charging>
0

> <r_epik_Ionization_Penalty_Neutral>
0.0024631

> <r_epik_State_Penalty>
0.00162428

> <r_epik_Charging_Adjusted_Penalty>
0.00162428

> <i_epik_Tot_Q>
0

> <i_epik_Tot_abs_Q>
0

> <r_epik_Metal_State_Penalty>
-0

> <b_epik_Metal_Only>
0

> <s_lp_Force_Field>
OPLS_2005

> <r_lp_Energy>
53.5717

> <b_lp_Chiralities_Consistent>
1

> <s_lp_Variant>
AV-unprocessed.smi:246-7

> <Gold.Version>
5.8.1

> <Gold.Id.Protein>
6NUR|6NUR_protein|mol2

> <Gold.PLP.Fitness>
46.2870

> <Gold.PLP.PLP>
-43.5170

> <Gold.PLP.part.hbond>
-2.0000

> <Gold.PLP.part.metal>
0.0000

> <Gold.PLP.part.buried>
-0.7986

> <Gold.PLP.part.nonpolar>
-43.4310

> <Gold.PLP.part.repulsive>
1.8826

> <Gold.PLP.ligand.clash>
0.0000

> <Gold.PLP.ligand.torsion>
1.6988

> <Gold.PLP.Chemscore.Hbond>
1.0000

> <Gold.PLP.Chemscore.CHOScore>
0.7859

> <Gold.PLP.Chemscore.Metal>
0.0000

> <Gold.Chemscore.Hbonds>
donor molecule, donor type, donor heavy atom, donor atom, acceptor molecule, acceptor atom, score
      L1  H    22    48       P1  7921  1.00
      L1  C    18    44       P1 10171  0.70

> <Gold.PLP.Chemscore.Internal.Correction>
0.8099

> <Gold.Rescore>
     Score         DG    S(hbond)    S(metal)    S(lipo)     H(rot)  DE(clash)    DE(int)     intcor
      8.18     -12.47       0.96        0.00     100.25       3.10       1.71       2.58       ----

> <Gold.Chemscore.Fitness>
8.1832

> <Gold.Chemscore.DG>
-12.4719

> <Gold.Chemscore.ZeroCoef>
-5.4800

> <Gold.Chemscore.Hbond>
0.9597

> <Gold.Chemscore.Metal>
0.0000

> <Gold.Chemscore.Lipo>
100.2492

> <Gold.Chemscore.Internal_Hbond>
0.0000

> <Gold.Chemscore.DEClash>
1.7096

> <Gold.Chemscore.DEInternal>
2.5790

> <Gold.Chemscore.Rot>
3.1026

> <Gold.Chemscore.Internal.Correction>
   9.000000E+99

> <Gold.Chemscore.Hbonds>
donor molecule, donor type, donor heavy atom, donor atom, acceptor molecule, acceptor atom, score
      L1  H    22    48       P1  7921  0.99

> <Gold.Chemscore.Hbond.Weighted>
-3.2054

> <Gold.Chemscore.Metal.Weighted>
-0.0000

> <Gold.Chemscore.Lipo.Weighted>
-11.7292

> <Gold.Chemscore.Internal_Hbond.Weighted>
0.0000

> <Gold.Chemscore.DEClash.Weighted>
1.7096

> <Gold.Chemscore.DEInternal.Weighted>
2.5790

> <Gold.Chemscore.Rot.Weighted>
7.9426

> <Gold.Chemscore.Internal.Correction.Weighted>
   9.000000E+99

> <Gold.Protein.RotatedTorsions>
[ 6907 6896 6895 6894 ] final  -45.30 input  -60.11 | X-H torsion
[ 7974 7965 7964 7962 ] final   50.07 input  175.53 | X-H torsion
[ 8008 7997 7996 7995 ] final  -11.21 input   59.86 | X-H torsion
[ 10167 10162 10161 10158 ] final  -61.55 input  -65.29 | X-H torsion
[ 10718 10713 10712 10709 ] final   46.59 input   66.30 | X-H torsion
[ 10763 10752 10751 10750 ] final   -3.07 input  -60.55 | X-H torsion
[ 11005 11000 10999 10996 ] final   31.59 input  -57.11 | X-H torsion

> <Gold.Protein.ActiveResidues>
 VAL166  LYS551  ARG553  GLY616  TRP617  ASP618  TYR619  PRO620  LYS621  CYS622 
 ASP623  PHE694  ASN695  SER759  ASP760  ASP761  ALA762  ILE779  LEU786  VAL792 
 PHE793  MET794  SER795  GLU796  ALA797  LYS798  CYS799  TRP800  GLU811  SER814 

> <Gold.Protein.RotatedAtoms>
  150.9235  134.8652  159.7504 H   0  0  0  0  0  0  0  0  0  0  0  0  # atno 6907 bound_to 6896
  152.5004  134.4183  159.9482 H   0  0  0  0  0  0  0  0  0  0  0  0  # atno 6908 bound_to 6896
  151.4216  133.3657  159.2792 H   0  0  0  0  0  0  0  0  0  0  0  0  # atno 6909 bound_to 6896
  146.0048  139.4478  142.9992 H   0  0  0  0  0  0  0  0  0  0  0  0  # atno 7974 bound_to 7965
  154.5485  140.2308  155.8523 H   0  0  0  0  0  0  0  0  0  0  0  0  # atno 8008 bound_to 7997
  156.1925  140.3073  155.9322 H   0  0  0  0  0  0  0  0  0  0  0  0  # atno 8009 bound_to 7997
  155.3117  140.0436  157.3026 H   0  0  0  0  0  0  0  0  0  0  0  0  # atno 8010 bound_to 7997
  140.5998  143.2359  151.5954 H   0  0  0  0  0  0  0  0  0  0  0  0  # atno 10167 bound_to 10162
  157.4497  130.8131  149.7776 H   0  0  0  0  0  0  0  0  0  0  0  0  # atno 10718 bound_to 10713
  153.3664  135.6992  153.6672 H   0  0  0  0  0  0  0  0  0  0  0  0  # atno 10763 bound_to 10752
  153.5340  135.3586  155.2689 H   0  0  0  0  0  0  0  0  0  0  0  0  # atno 10764 bound_to 10752
  154.8675  135.4187  154.2932 H   0  0  0  0  0  0  0  0  0  0  0  0  # atno 10765 bound_to 10752
  140.2823  134.2959  155.7797 H   0  0  0  0  0  0  0  0  0  0  0  0  # atno 11005 bound_to 11000
  145.7432  141.0000  143.1290 LP  0  0  0  0  0  0  0  0  0  0  0  0  # atno 17320 bound_to 7965
  144.6932  139.9125  143.7464 LP  0  0  0  0  0  0  0  0  0  0  0  0  # atno 17321 bound_to 7965
  139.5283  144.2992  152.1088 LP  0  0  0  0  0  0  0  0  0  0  0  0  # atno 17342 bound_to 10162
  140.2170  144.4504  150.6359 LP  0  0  0  0  0  0  0  0  0  0  0  0  # atno 17343 bound_to 10162
  155.9982  130.3895  150.2711 LP  0  0  0  0  0  0  0  0  0  0  0  0  # atno 17370 bound_to 10713
  157.0881  131.0162  151.3132 LP  0  0  0  0  0  0  0  0  0  0  0  0  # atno 17371 bound_to 10713
  141.2160  133.7533  156.9499 LP  0  0  0  0  0  0  0  0  0  0  0  0  # atno 17394 bound_to 11000
  140.1272  134.9379  157.2286 LP  0  0  0  0  0  0  0  0  0  0  0  0  # atno 17395 bound_to 11000

$$$$
