AV-unprocessed.smi:1218|AV-procd|sdf|5107|dock3
  -GOLD-   22720 4163D 1   1.00000     0.00000
 Structure written by MMmdl.
 45 46  0  0  0  0  0  0  0  0  2 V2000
  145.9051  132.0109  149.3915 C   0  0  0  0  0  0  0  0  0  0  0  0
  145.6858  132.2687  150.8898 C   0  0  0  0  0  0  0  0  0  0  0  0
  144.2844  132.8535  151.1336 C   0  0  0  0  0  0  0  0  0  0  0  0
  146.7976  133.1821  151.4504 C   0  0  0  0  0  0  0  0  0  0  0  0
  147.7577  132.4652  152.3339 N   0  3  2  0  0  0  0  0  0  0  0  0
  147.1139  131.4579  153.2112 C   0  0  0  0  0  0  0  0  0  0  0  0
  146.4256  132.1291  154.4126 C   0  0  0  0  0  0  0  0  0  0  0  0
  147.3803  132.9028  155.1274 O   0  0  0  0  0  0  0  0  0  0  0  0
  147.9312  133.9587  154.3459 C   0  0  1  0  0  0  0  0  0  0  0  0
  148.8959  134.7760  155.2242 C   0  0  0  0  0  0  0  0  0  0  0  0
  149.4346  135.9312  154.5139 N   0  0  0  0  0  0  0  0  0  0  0  0
  149.9630  137.0207  155.0923 C   0  0  0  0  0  0  0  0  0  0  0  0
  150.0423  137.1646  156.3128 O   0  0  0  0  0  0  0  0  0  0  0  0
  150.4715  138.1107  154.1427 C   0  0  0  0  0  0  0  0  0  0  0  0
  149.7385  139.3567  154.2971 N   0  0  0  0  0  0  0  0  0  0  0  0
  148.3941  139.5930  154.0945 C   0  0  0  0  0  0  0  0  0  0  0  0
  148.1662  140.9105  154.3713 C   0  0  0  0  0  0  0  0  0  0  0  0
  149.4477  141.4040  154.7438 C   0  0  0  0  0  0  0  0  0  0  0  0
  150.3858  140.4716  154.7014 N   0  0  0  0  0  0  0  0  0  0  0  0
  148.6567  133.3422  153.1286 C   0  0  0  0  0  0  0  0  0  0  0  0
  145.8655  132.9378  148.8182 H   0  0  0  0  0  0  0  0  0  0  0  0
  145.1434  131.3406  148.9919 H   0  0  0  0  0  0  0  0  0  0  0  0
  146.8757  131.5485  149.2087 H   0  0  0  0  0  0  0  0  0  0  0  0
  145.7334  131.2980  151.3818 H   0  0  0  0  0  0  0  0  0  0  0  0
  144.1737  133.8300  150.6609 H   0  0  0  0  0  0  0  0  0  0  0  0
  144.0797  132.9729  152.1978 H   0  0  0  0  0  0  0  0  0  0  0  0
  143.5119  132.1997  150.7273 H   0  0  0  0  0  0  0  0  0  0  0  0
  147.3329  133.6703  150.6362 H   0  0  0  0  0  0  0  0  0  0  0  0
  146.3206  133.9844  152.0154 H   0  0  0  0  0  0  0  0  0  0  0  0
  146.4078  130.8470  152.6477 H   0  0  0  0  0  0  0  0  0  0  0  0
  147.8842  130.7762  153.5741 H   0  0  0  0  0  0  0  0  0  0  0  0
  145.5902  132.7553  154.0960 H   0  0  0  0  0  0  0  0  0  0  0  0
  146.0175  131.3710  155.0813 H   0  0  0  0  0  0  0  0  0  0  0  0
  147.1292  134.6170  154.0087 H   0  0  0  0  0  0  0  0  0  0  0  0
  148.4109  135.0812  156.1532 H   0  0  0  0  0  0  0  0  0  0  0  0
  149.7434  134.1532  155.5116 H   0  0  0  0  0  0  0  0  0  0  0  0
  149.4095  135.8979  153.5049 H   0  0  0  0  0  0  0  0  0  0  0  0
  151.5281  138.3119  154.3245 H   0  0  0  0  0  0  0  0  0  0  0  0
  150.3834  137.7588  153.1136 H   0  0  0  0  0  0  0  0  0  0  0  0
  147.7204  138.8129  153.7714 H   0  0  0  0  0  0  0  0  0  0  0  0
  147.2273  141.4410  154.3167 H   0  0  0  0  0  0  0  0  0  0  0  0
  149.7219  142.4048  155.0435 H   0  0  0  0  0  0  0  0  0  0  0  0
  149.4915  132.7338  153.4793 H   0  0  0  0  0  0  0  0  0  0  0  0
  149.0955  134.1216  152.5071 H   0  0  0  0  0  0  0  0  0  0  0  0
  148.3489  131.9417  151.7040 H   0  0  0  0  0  0  0  0  0  0  0  0
  1  2  1  0  0  0  0
  1 21  1  0  0  0  0
  1 22  1  0  0  0  0
  1 23  1  0  0  0  0
  2  3  1  0  0  0  0
  2  4  1  0  0  0  0
  2 24  1  0  0  0  0
  3 25  1  0  0  0  0
  3 26  1  0  0  0  0
  3 27  1  0  0  0  0
  4  5  1  0  0  0  0
  4 28  1  0  0  0  0
  4 29  1  0  0  0  0
  5 20  1  0  0  0  0
  5  6  1  0  0  0  0
  5 45  1  0  0  0  0
  6  7  1  0  0  0  0
  6 30  1  0  0  0  0
  6 31  1  0  0  0  0
  7  8  1  0  0  0  0
  7 32  1  0  0  0  0
  7 33  1  0  0  0  0
  8  9  1  0  0  0  0
  9 10  1  0  0  0  0
  9 20  1  0  0  0  0
  9 34  1  0  0  0  0
 10 11  1  0  0  0  0
 10 35  1  0  0  0  0
 10 36  1  0  0  0  0
 11 12  1  0  0  0  0
 11 37  1  0  0  0  0
 12 13  2  0  0  0  0
 12 14  1  0  0  0  0
 14 15  1  0  0  0  0
 14 38  1  0  0  0  0
 14 39  1  0  0  0  0
 15 19  1  0  0  0  0
 15 16  1  0  0  0  0
 16 17  2  0  0  0  0
 16 40  1  0  0  0  0
 17 18  1  0  0  0  0
 17 41  1  0  0  0  0
 18 19  2  0  0  0  0
 18 42  1  0  0  0  0
 20 43  1  0  0  0  0
 20 44  1  0  0  0  0
M  CHG  1   5   1
M  END
> <s_m_source_file>
AV-unprocessed.smi

> <i_m_source_file_index>
1218

> <i_lp_mmshare_version>
43012

> <i_f3d_flags>
0

> <s_epik_input>
W0NIM11bQ0hdKFtDSDNdKVtDSDJdTjFbQ0gyXVtDSDJdT1tDQEhdKFtDSDJdMSlbQ0gyXVtOSF1DKD1PKVtDSDJdbjJbY0hdW2NIXVtjSF1uMg==

> <s_epik_cmdline>
J2VwaWtfcHl0aG9uJywgJy1waCcsICc3LjAnLCAnLXRuJywgJzgnLCAnLW1hJywgJzIwMCcsICctbWV0YWxfYmluZGluZycsICctaW1hZScsICc8aW5maWxlLm1hZT4nLCAnLW9tYWUnLCAnPG91dGZpbGUubWFlPic=

> <r_lp_tautomer_probability>
1

> <r_epik_Ionization_Penalty>
0.0995066

> <r_epik_Ionization_Penalty_Charging>
0.0994921

> <r_epik_Ionization_Penalty_Neutral>
1.44634e-05

> <r_epik_State_Penalty>
0.0895432

> <r_epik_Charging_Adjusted_Penalty>
0.189035

> <i_epik_Tot_Q>
1

> <i_epik_Tot_abs_Q>
1

> <r_epik_Metal_State_Penalty>
0.0895432

> <b_epik_Metal_Only>
0

> <s_lp_Force_Field>
OPLS_2005

> <r_lp_Energy>
22.0385

> <b_lp_Chiralities_Consistent>
1

> <s_lp_Variant>
AV-unprocessed.smi:1218-2

> <Gold.Version>
5.8.1

> <Gold.Id.Protein>
6NUR|6NUR_protein|mol2

> <Gold.PLP.Fitness>
46.4033

> <Gold.PLP.PLP>
-36.2294

> <Gold.PLP.part.hbond>
-3.0000

> <Gold.PLP.part.metal>
0.0000

> <Gold.PLP.part.buried>
-2.8652

> <Gold.PLP.part.nonpolar>
-30.0590

> <Gold.PLP.part.repulsive>
0.1455

> <Gold.PLP.ligand.clash>
0.0000

> <Gold.PLP.ligand.torsion>
1.0105

> <Gold.PLP.Chemscore.Hbond>
3.0000

> <Gold.PLP.Chemscore.CHOScore>
0.9958

> <Gold.PLP.Chemscore.Metal>
0.0000

> <Gold.Chemscore.Hbonds>
donor molecule, donor type, donor heavy atom, donor atom, acceptor molecule, acceptor atom, score
      L1  H     5    45       P1 10747  1.00
      L1  H    11    37       P1  7948  1.00
      P1  H  7989  7998       L1    19  1.00
      L1  C    18    42       P1  8028  1.00

> <Gold.PLP.Chemscore.Internal.Correction>
0.2076

> <Gold.Rescore>
     Score         DG    S(hbond)    S(metal)    S(lipo)     H(rot)  DE(clash)    DE(int)     intcor
     18.42     -19.32       2.68        0.00      84.77       1.96       0.00       0.90       ----

> <Gold.Chemscore.Fitness>
18.4221

> <Gold.Chemscore.DG>
-19.3229

> <Gold.Chemscore.ZeroCoef>
-5.4800

> <Gold.Chemscore.Hbond>
2.6791

> <Gold.Chemscore.Metal>
0.0000

> <Gold.Chemscore.Lipo>
84.7731

> <Gold.Chemscore.Internal_Hbond>
0.0000

> <Gold.Chemscore.DEClash>
0.0004

> <Gold.Chemscore.DEInternal>
0.9004

> <Gold.Chemscore.Rot>
1.9624

> <Gold.Chemscore.Internal.Correction>
   9.000000E+99

> <Gold.Chemscore.Hbonds>
donor molecule, donor type, donor heavy atom, donor atom, acceptor molecule, acceptor atom, score
      L1  H     5    45       P1 10747  1.00
      L1  H    11    37       P1  7948  0.45
      P1  H  7989  7998       L1    19  0.49

> <Gold.Chemscore.Hbond.Weighted>
-8.9482

> <Gold.Chemscore.Metal.Weighted>
-0.0000

> <Gold.Chemscore.Lipo.Weighted>
-9.9184

> <Gold.Chemscore.Internal_Hbond.Weighted>
0.0000

> <Gold.Chemscore.DEClash.Weighted>
0.0004

> <Gold.Chemscore.DEInternal.Weighted>
0.9004

> <Gold.Chemscore.Rot.Weighted>
5.0237

> <Gold.Chemscore.Internal.Correction.Weighted>
   9.000000E+99

> <Gold.Protein.RotatedTorsions>
[ 6907 6896 6895 6894 ] final  -85.15 input  -60.11 | X-H torsion
[ 7974 7965 7964 7962 ] final   78.16 input  175.53 | X-H torsion
[ 8008 7997 7996 7995 ] final  -37.56 input   59.86 | X-H torsion
[ 10167 10162 10161 10158 ] final   74.89 input  -65.29 | X-H torsion
[ 10718 10713 10712 10709 ] final   13.77 input   66.30 | X-H torsion
[ 10763 10752 10751 10750 ] final  104.78 input  -60.55 | X-H torsion
[ 11005 11000 10999 10996 ] final  136.12 input  -57.11 | X-H torsion

> <Gold.Protein.ActiveResidues>
 VAL166  LYS551  ARG553  GLY616  TRP617  ASP618  TYR619  PRO620  LYS621  CYS622 
 ASP623  PHE694  ASN695  SER759  ASP760  ASP761  ALA762  ILE779  LEU786  VAL792 
 PHE793  MET794  SER795  GLU796  ALA797  LYS798  CYS799  TRP800  GLU811  SER814 

> <Gold.Protein.RotatedAtoms>
  150.6872  134.3249  159.4802 H   0  0  0  0  0  0  0  0  0  0  0  0  # atno 6907 bound_to 6896
  152.1120  134.9265  160.0575 H   0  0  0  0  0  0  0  0  0  0  0  0  # atno 6908 bound_to 6896
  152.0504  133.3981  159.4411 H   0  0  0  0  0  0  0  0  0  0  0  0  # atno 6909 bound_to 6896
  145.6807  139.2523  143.1816 H   0  0  0  0  0  0  0  0  0  0  0  0  # atno 7974 bound_to 7965
  154.4051  140.1601  156.2557 H   0  0  0  0  0  0  0  0  0  0  0  0  # atno 8008 bound_to 7997
  155.9080  140.3429  155.6054 H   0  0  0  0  0  0  0  0  0  0  0  0  # atno 8009 bound_to 7997
  155.7369  140.0787  157.2254 H   0  0  0  0  0  0  0  0  0  0  0  0  # atno 8010 bound_to 7997
  140.0089  144.5630  150.7675 H   0  0  0  0  0  0  0  0  0  0  0  0  # atno 10167 bound_to 10162
  157.0295  130.6187  149.5733 H   0  0  0  0  0  0  0  0  0  0  0  0  # atno 10718 bound_to 10713
  153.3705  135.3932  155.1785 H   0  0  0  0  0  0  0  0  0  0  0  0  # atno 10763 bound_to 10752
  154.8693  135.3701  154.4983 H   0  0  0  0  0  0  0  0  0  0  0  0  # atno 10764 bound_to 10752
  153.5451  135.7084  153.5679 H   0  0  0  0  0  0  0  0  0  0  0  0  # atno 10765 bound_to 10752
  140.0025  134.9473  157.0102 H   0  0  0  0  0  0  0  0  0  0  0  0  # atno 11005 bound_to 11000
  146.0967  140.7592  142.9569 LP  0  0  0  0  0  0  0  0  0  0  0  0  # atno 17320 bound_to 7965
  144.7027  140.3722  143.7143 LP  0  0  0  0  0  0  0  0  0  0  0  0  # atno 17321 bound_to 7965
  140.7389  143.2785  151.3670 LP  0  0  0  0  0  0  0  0  0  0  0  0  # atno 17342 bound_to 10162
  139.6219  144.0890  152.2399 LP  0  0  0  0  0  0  0  0  0  0  0  0  # atno 17343 bound_to 10162
  156.0074  130.5163  150.7877 LP  0  0  0  0  0  0  0  0  0  0  0  0  # atno 17370 bound_to 10713
  157.5189  131.0930  151.0104 LP  0  0  0  0  0  0  0  0  0  0  0  0  # atno 17371 bound_to 10713
  140.4702  134.1394  155.7202 LP  0  0  0  0  0  0  0  0  0  0  0  0  # atno 17394 bound_to 11000
  141.1652  133.8716  157.1734 LP  0  0  0  0  0  0  0  0  0  0  0  0  # atno 17395 bound_to 11000

$$$$
