AV-unprocessed.smi:3345|AV-procd|sdf|12904|dock1
  -GOLD-   2272019313D 1   1.00000     0.00000
 Structure written by MMmdl.
 41 42  0  0  0  0  0  0  0  0  2 V2000
  149.2832  133.1329  155.0388 C   0  0  0  0  0  0  0  0  0  0  0  0
  148.8028  134.4962  154.5234 C   0  0  1  0  0  0  0  0  0  0  0  0
  147.2717  134.5060  154.3070 C   0  0  0  0  0  0  0  0  0  0  0  0
  146.8824  134.2926  152.8900 N   0  3  0  0  0  0  0  0  0  0  0  0
  147.0931  132.9015  152.4210 C   0  0  0  0  0  0  0  0  0  0  0  0
  146.7463  132.7882  150.9275 C   0  0  0  0  0  0  0  0  0  0  0  0
  145.4010  133.2019  150.7201 O   0  0  0  0  0  0  0  0  0  0  0  0
  145.1960  134.5585  151.0952 C   0  0  0  0  0  0  0  0  0  0  0  0
  145.5001  134.7346  152.5929 C   0  0  0  0  0  0  0  0  0  0  0  0
  149.2163  135.5328  155.4699 N   0  0  0  0  0  0  0  0  0  0  0  0
  150.3865  136.1927  155.4601 C   0  0  0  0  0  0  0  0  0  0  0  0
  151.2487  136.0209  154.5979 O   0  0  0  0  0  0  0  0  0  0  0  0
  150.6079  137.2024  156.5959 C   0  0  2  0  0  0  0  0  0  0  0  0
  149.4406  137.2173  157.6036 C   0  0  0  0  0  0  0  0  0  0  0  0
  150.8815  138.5233  156.0436 N   0  0  0  0  0  0  0  0  0  0  0  0
  150.8836  138.9380  154.7747 C   0  0  0  0  0  0  0  0  0  0  0  0
  151.1271  140.2331  154.6312 N   0  0  0  0  0  0  0  0  0  0  0  0
  151.2650  140.5861  155.9434 C   0  0  0  0  0  0  0  0  0  0  0  0
  151.1153  139.6030  156.8309 N   0  0  0  0  0  0  0  0  0  0  0  0
  149.0259  132.3369  154.3394 H   0  0  0  0  0  0  0  0  0  0  0  0
  148.8320  132.8880  156.0011 H   0  0  0  0  0  0  0  0  0  0  0  0
  150.3665  133.1201  155.1657 H   0  0  0  0  0  0  0  0  0  0  0  0
  149.3026  134.6644  153.5684 H   0  0  0  0  0  0  0  0  0  0  0  0
  146.7872  133.7566  154.9348 H   0  0  0  0  0  0  0  0  0  0  0  0
  146.8899  135.4720  154.6413 H   0  0  0  0  0  0  0  0  0  0  0  0
  148.1286  132.5999  152.5757 H   0  0  0  0  0  0  0  0  0  0  0  0
  146.4711  132.2184  153.0015 H   0  0  0  0  0  0  0  0  0  0  0  0
  147.4250  133.3927  150.3233 H   0  0  0  0  0  0  0  0  0  0  0  0
  146.8544  131.7564  150.5929 H   0  0  0  0  0  0  0  0  0  0  0  0
  145.8254  135.2138  150.4907 H   0  0  0  0  0  0  0  0  0  0  0  0
  144.1609  134.8304  150.8875 H   0  0  0  0  0  0  0  0  0  0  0  0
  144.7930  134.1577  153.1914 H   0  0  0  0  0  0  0  0  0  0  0  0
  145.3774  135.7824  152.8694 H   0  0  0  0  0  0  0  0  0  0  0  0
  148.5694  135.7416  156.2168 H   0  0  0  0  0  0  0  0  0  0  0  0
  151.5007  136.8951  157.1436 H   0  0  0  0  0  0  0  0  0  0  0  0
  149.2869  136.2300  158.0405 H   0  0  0  0  0  0  0  0  0  0  0  0
  148.5009  137.5226  157.1417 H   0  0  0  0  0  0  0  0  0  0  0  0
  149.6442  137.9081  158.4223 H   0  0  0  0  0  0  0  0  0  0  0  0
  150.6989  138.2801  153.9382 H   0  0  0  0  0  0  0  0  0  0  0  0
  151.4742  141.5991  156.2544 H   0  0  0  0  0  0  0  0  0  0  0  0
  147.4904  134.8816  152.3384 H   0  0  0  0  0  0  0  0  0  0  0  0
  1  2  1  0  0  0  0
  1 20  1  0  0  0  0
  1 21  1  0  0  0  0
  1 22  1  0  0  0  0
  2  3  1  0  0  0  0
  2 10  1  0  0  0  0
  2 23  1  0  0  0  0
  3  4  1  0  0  0  0
  3 24  1  0  0  0  0
  3 25  1  0  0  0  0
  4  9  1  0  0  0  0
  4  5  1  0  0  0  0
  4 41  1  0  0  0  0
  5  6  1  0  0  0  0
  5 26  1  0  0  0  0
  5 27  1  0  0  0  0
  6  7  1  0  0  0  0
  6 28  1  0  0  0  0
  6 29  1  0  0  0  0
  7  8  1  0  0  0  0
  8  9  1  0  0  0  0
  8 30  1  0  0  0  0
  8 31  1  0  0  0  0
  9 32  1  0  0  0  0
  9 33  1  0  0  0  0
 10 11  1  0  0  0  0
 10 34  1  0  0  0  0
 11 12  2  0  0  0  0
 11 13  1  0  0  0  0
 13 14  1  0  0  0  0
 13 15  1  0  0  0  0
 13 35  1  0  0  0  0
 14 36  1  0  0  0  0
 14 37  1  0  0  0  0
 14 38  1  0  0  0  0
 15 19  1  0  0  0  0
 15 16  1  0  0  0  0
 16 17  2  0  0  0  0
 16 39  1  0  0  0  0
 17 18  1  0  0  0  0
 18 19  2  0  0  0  0
 18 40  1  0  0  0  0
M  CHG  1   4   1
M  END
> <s_m_source_file>
AV-unprocessed.smi

> <i_m_source_file_index>
3345

> <i_lp_mmshare_version>
43012

> <i_f3d_flags>
0

> <s_epik_input>
W0NIMl0xW0NIMl1PW0NIMl1bQ0gyXU4xW0NIMl1bQ0BASF0oW0NIM10pW05IXUMoPU8pW0NASF0oW0NIM10pbjJbY0hdbltjSF1uMg==

> <s_epik_cmdline>
J2VwaWtfcHl0aG9uJywgJy1waCcsICc3LjAnLCAnLXRuJywgJzgnLCAnLW1hJywgJzIwMCcsICctbWV0YWxfYmluZGluZycsICctaW1hZScsICc8aW5maWxlLm1hZT4nLCAnLW9tYWUnLCAnPG91dGZpbGUubWFlPic=

> <r_lp_tautomer_probability>
1

> <r_epik_Ionization_Penalty>
0.71326

> <r_epik_Ionization_Penalty_Charging>
0.713252

> <r_epik_Ionization_Penalty_Neutral>
8.27671e-06

> <r_epik_State_Penalty>
0.737017

> <r_epik_Charging_Adjusted_Penalty>
1.45027

> <i_epik_Tot_Q>
1

> <i_epik_Tot_abs_Q>
1

> <r_epik_Metal_State_Penalty>
0.73702

> <b_epik_Metal_Only>
0

> <s_lp_Force_Field>
OPLS_2005

> <r_lp_Energy>
28.084

> <b_lp_Chiralities_Consistent>
1

> <s_lp_Variant>
AV-unprocessed.smi:3345-6

> <Gold.Version>
5.8.1

> <Gold.Id.Protein>
6NUR|6NUR_protein|mol2

> <Gold.PLP.Fitness>
34.0650

> <Gold.PLP.PLP>
-24.9131

> <Gold.PLP.part.hbond>
-3.0000

> <Gold.PLP.part.metal>
0.0000

> <Gold.PLP.part.buried>
-3.2976

> <Gold.PLP.part.nonpolar>
-18.5635

> <Gold.PLP.part.repulsive>
0.4221

> <Gold.PLP.ligand.clash>
0.8079

> <Gold.PLP.ligand.torsion>
1.1008

> <Gold.PLP.Chemscore.Hbond>
4.0000

> <Gold.PLP.Chemscore.CHOScore>
0.0000

> <Gold.PLP.Chemscore.Metal>
0.0000

> <Gold.Chemscore.Hbonds>
donor molecule, donor type, donor heavy atom, donor atom, acceptor molecule, acceptor atom, score
      L1  H     4    41       P1  7948  2.00
      P1  H  7989  7998       L1    17  0.65
      P1  H 10752 10764       L1    12  1.00

> <Gold.PLP.Chemscore.Internal.Correction>
0.1615

> <Gold.Rescore>
     Score         DG    S(hbond)    S(metal)    S(lipo)     H(rot)  DE(clash)    DE(int)     intcor
     11.80     -12.91       2.87        0.00      38.71       2.61       0.07       1.04       ----

> <Gold.Chemscore.Fitness>
11.7972

> <Gold.Chemscore.DG>
-12.9076

> <Gold.Chemscore.ZeroCoef>
-5.4800

> <Gold.Chemscore.Hbond>
2.8712

> <Gold.Chemscore.Metal>
0.0000

> <Gold.Chemscore.Lipo>
38.7092

> <Gold.Chemscore.Internal_Hbond>
0.0000

> <Gold.Chemscore.DEClash>
0.0673

> <Gold.Chemscore.DEInternal>
1.0431

> <Gold.Chemscore.Rot>
2.6138

> <Gold.Chemscore.Internal.Correction>
   9.000000E+99

> <Gold.Chemscore.Hbonds>
donor molecule, donor type, donor heavy atom, donor atom, acceptor molecule, acceptor atom, score
      L1  H     4    41       P1  7948  0.90
      P1  H  7989  7998       L1    17  0.65
      P1  H 10752 10764       L1    12  1.00

> <Gold.Chemscore.Hbond.Weighted>
-9.5898

> <Gold.Chemscore.Metal.Weighted>
-0.0000

> <Gold.Chemscore.Lipo.Weighted>
-4.5290

> <Gold.Chemscore.Internal_Hbond.Weighted>
0.0000

> <Gold.Chemscore.DEClash.Weighted>
0.0673

> <Gold.Chemscore.DEInternal.Weighted>
1.0431

> <Gold.Chemscore.Rot.Weighted>
6.6912

> <Gold.Chemscore.Internal.Correction.Weighted>
   9.000000E+99

> <Gold.Protein.RotatedTorsions>
[ 6907 6896 6895 6894 ] final   74.10 input  -60.11 | X-H torsion
[ 7974 7965 7964 7962 ] final    9.68 input  175.53 | X-H torsion
[ 8008 7997 7996 7995 ] final  166.30 input   59.86 | X-H torsion
[ 10167 10162 10161 10158 ] final   32.96 input  -65.29 | X-H torsion
[ 10718 10713 10712 10709 ] final  -56.95 input   66.30 | X-H torsion
[ 10763 10752 10751 10750 ] final  -70.33 input  -60.55 | X-H torsion
[ 11005 11000 10999 10996 ] final -146.74 input  -57.11 | X-H torsion

> <Gold.Protein.ActiveResidues>
 VAL166  LYS551  ARG553  GLY616  TRP617  ASP618  TYR619  PRO620  LYS621  CYS622 
 ASP623  PHE694  ASN695  SER759  ASP760  ASP761  ALA762  ILE779  LEU786  VAL792 
 PHE793  MET794  SER795  GLU796  ALA797  LYS798  CYS799  TRP800  GLU811  SER814 

> <Gold.Protein.RotatedAtoms>
  152.4958  134.4323  159.9515 H   0  0  0  0  0  0  0  0  0  0  0  0  # atno 6907 bound_to 6896
  151.4302  133.3666  159.2775 H   0  0  0  0  0  0  0  0  0  0  0  0  # atno 6908 bound_to 6896
  150.9160  134.8601  159.7517 H   0  0  0  0  0  0  0  0  0  0  0  0  # atno 6909 bound_to 6896
  146.2400  139.9748  142.8443 H   0  0  0  0  0  0  0  0  0  0  0  0  # atno 7974 bound_to 7965
  156.1729  140.1647  156.8414 H   0  0  0  0  0  0  0  0  0  0  0  0  # atno 8008 bound_to 7997
  154.5276  140.0764  156.8321 H   0  0  0  0  0  0  0  0  0  0  0  0  # atno 8009 bound_to 7997
  155.3474  140.3388  155.4241 H   0  0  0  0  0  0  0  0  0  0  0  0  # atno 8010 bound_to 7997
  140.4451  144.1131  150.6181 H   0  0  0  0  0  0  0  0  0  0  0  0  # atno 10167 bound_to 10162
  156.1249  130.4163  150.0374 H   0  0  0  0  0  0  0  0  0  0  0  0  # atno 10718 bound_to 10713
  154.4162  135.5997  153.5982 H   0  0  0  0  0  0  0  0  0  0  0  0  # atno 10763 bound_to 10752
  152.9792  135.5941  154.4011 H   0  0  0  0  0  0  0  0  0  0  0  0  # atno 10764 bound_to 10752
  154.3830  135.2841  155.2179 H   0  0  0  0  0  0  0  0  0  0  0  0  # atno 10765 bound_to 10752
  140.7789  134.3102  157.5052 H   0  0  0  0  0  0  0  0  0  0  0  0  # atno 11005 bound_to 11000
  145.1647  140.9691  143.4356 LP  0  0  0  0  0  0  0  0  0  0  0  0  # atno 17320 bound_to 7965
  145.0083  139.3533  143.6133 LP  0  0  0  0  0  0  0  0  0  0  0  0  # atno 17321 bound_to 7965
  140.4273  143.2584  151.9639 LP  0  0  0  0  0  0  0  0  0  0  0  0  # atno 17342 bound_to 10162
  139.4792  144.5776  151.7986 LP  0  0  0  0  0  0  0  0  0  0  0  0  # atno 17343 bound_to 10162
  156.8302  130.9390  151.3637 LP  0  0  0  0  0  0  0  0  0  0  0  0  # atno 17370 bound_to 10713
  157.6431  130.8822  149.9486 LP  0  0  0  0  0  0  0  0  0  0  0  0  # atno 17371 bound_to 10713
  139.8745  134.9306  156.3507 LP  0  0  0  0  0  0  0  0  0  0  0  0  # atno 17394 bound_to 11000
  140.9502  133.7456  156.0262 LP  0  0  0  0  0  0  0  0  0  0  0  0  # atno 17395 bound_to 11000

$$$$
