#       Name:                AV-unprocessed.smi:237
#       Creating user name   scv26
#       Creation time:       Thu Mar 26 20:40:57 2020


#       File generated by GOLD software.
#

@<TRIPOS>MOLECULE
AV-unprocessed.smi:237
    63    66     1
SMALL
NO_CHARGES


@<TRIPOS>ATOM
      1 ****         0.2226  -2.7245   2.4315 C.3            1 S1                 0.0000
      2 ****        -1.2065  -2.6165   1.8943 C.3            1 S1                 0.0000
      3 ****        -1.1757  -2.7903   0.4855 O.3            1 S1                 0.0000
      4 ****        -2.4490  -2.7308  -0.1467 C.3            1 S1                 0.0000
      5 ****        -2.9839  -1.2859  -0.3348 C.3            1 S1                 0.0000
      6 ****        -4.5091  -1.3422  -0.5752 C.3            1 S1                 0.0000
      7 ****        -5.1014   0.0493  -0.8372 C.3            1 S1                 0.0000
      8 ****        -4.3701   0.7135  -2.0089 C.3            1 S1                 0.0000
      9 ****        -2.8608   0.7609  -1.7357 C.3            1 S1                 0.0000
     10 ****        -2.3322  -0.5721  -1.4463 N.3            1 S1                 0.0000
     11 ****        -0.9812  -0.5490  -1.4080 C.ar           1 S1                 0.0000
     12 ****        -0.3219  -1.1397  -2.4344 N.ar           1 S1                 0.0000
     13 ****         1.0142  -1.1726  -2.4370 C.ar           1 S1                 0.0000
     14 ****         1.8639  -0.6836  -1.5309 N.ar           1 S1                 0.0000
     15 ****         1.2011  -0.0759  -0.5049 C.ar           1 S1                 0.0000
     16 ****        -0.2097   0.0404  -0.3667 C.ar           1 S1                 0.0000
     17 ****        -0.5175   0.7171   0.8071 N.2            1 S1                 0.0000
     18 ****         0.6459   0.9755   1.3383 C.2            1 S1                 0.0000
     19 ****         1.7340   0.5452   0.6116 N.pl3          1 S1                 0.0000
     20 ****         3.1393   0.6847   0.9656 C.3            1 S1                 0.0000
     21 ****         3.7902   2.0205   0.5324 C.3            1 S1                 0.0000
     22 ****         5.2968   1.9271   0.8094 C.3            1 S1                 0.0000
     23 ****         5.9241   1.0090  -0.0630 O.3            1 S1                 0.0000
     24 ****         3.3839   2.6114  -0.8297 C.3            1 S1                 0.0000
     25 ****         2.4669   3.5395  -0.2125 O.3            1 S1                 0.0000
     26 ****         3.1081   3.2952   1.0568 C.3            1 S1                 0.0000
     27 ****         0.2442  -2.5861   3.5126 H              1 S1                 0.0000
     28 ****         0.8682  -1.9684   1.9849 H              1 S1                 0.0000
     29 ****         0.6501  -3.7025   2.2099 H              1 S1                 0.0000
     30 ****        -1.8325  -3.3822   2.3546 H              1 S1                 0.0000
     31 ****        -1.6252  -1.6464   2.1604 H              1 S1                 0.0000
     32 ****        -2.3712  -3.2179  -1.1194 H              1 S1                 0.0000
     33 ****        -3.1542  -3.3325   0.4291 H              1 S1                 0.0000
     34 ****        -2.8275  -0.7139   0.5790 H              1 S1                 0.0000
     35 ****        -4.7229  -1.9894  -1.4272 H              1 S1                 0.0000
     36 ****        -5.0069  -1.7910   0.2850 H              1 S1                 0.0000
     37 ****        -6.1672  -0.0289  -1.0531 H              1 S1                 0.0000
     38 ****        -5.0059   0.6667   0.0569 H              1 S1                 0.0000
     39 ****        -4.5603   0.1555  -2.9268 H              1 S1                 0.0000
     40 ****        -4.7538   1.7210  -2.1706 H              1 S1                 0.0000
     41 ****        -2.3474   1.1844  -2.6007 H              1 S1                 0.0000
     42 ****        -2.6631   1.4241  -0.8924 H              1 S1                 0.0000
     43 ****         1.4678  -1.6639  -3.2850 H              1 S1                 0.0000
     44 ****         0.7394   1.4870   2.2848 H              1 S1                 0.0000
     45 ****         3.2215   0.5585   2.0458 H              1 S1                 0.0000
     46 ****         3.6674  -0.1645   0.5311 H              1 S1                 0.0000
     47 ****         5.7790   2.8959   0.6752 H              1 S1                 0.0000
     48 ****         5.4885   1.6242   1.8393 H              1 S1                 0.0000
     49 ****         6.8481   0.9887   0.1345 H              1 S1                 0.0000
     50 ****         4.1951   3.1313  -1.3422 H              1 S1                 0.0000
     51 ****         2.8933   1.9143  -1.5073 H              1 S1                 0.0000
     52 ****         2.4003   3.1316   1.8683 H              1 S1                 0.0000
     53 ****         3.8026   4.0965   1.3150 H              1 S1                 0.0000
     54 ****        -0.7720  -3.6841   0.2902 LP             1 S1                 0.0000
     55 ****        -0.5998  -2.0720   0.0951 LP             1 S1                 0.0000
     56 ****        -2.5897  -1.1559  -2.2163 LP             1 S1                 0.0000
     57 ****        -0.8344  -1.5502  -3.1886 LP             1 S1                 0.0000
     58 ****         2.8593  -0.7538  -1.5960 LP             1 S1                 0.0000
     59 ****        -1.4221   0.9520   1.1627 LP             1 S1                 0.0000
     60 ****         5.7884   1.2981  -1.0107 LP             1 S1                 0.0000
     61 ****         5.5317   0.0985   0.0671 LP             1 S1                 0.0000
     62 ****         1.5084   3.2571  -0.2502 LP             1 S1                 0.0000
     63 ****         2.5504   4.4803  -0.5412 LP             1 S1                 0.0000
@<TRIPOS>BOND
    1    1    2 1     
    2    1   27 1     
    3    1   28 1     
    4    1   29 1     
    5    2    3 1     
    6    2   30 1     
    7    2   31 1     
    8    3    4 1     
    9    4    5 1     
   10    4   32 1     
   11    4   33 1     
   12    5   10 1     
   13    5    6 1     
   14    5   34 1     
   15    6    7 1     
   16    6   35 1     
   17    6   36 1     
   18    7    8 1     
   19    7   37 1     
   20    7   38 1     
   21    8    9 1     
   22    8   39 1     
   23    8   40 1     
   24    9   10 1     
   25    9   41 1     
   26    9   42 1     
   27   10   11 1     
   28   11   16 ar    
   29   11   12 ar    
   30   12   13 ar    
   31   13   14 ar    
   32   13   43 1     
   33   14   15 ar    
   34   15   19 1     
   35   15   16 ar    
   36   16   17 1     
   37   17   18 2     
   38   18   19 1     
   39   18   44 1     
   40   19   20 1     
   41   20   21 1     
   42   20   45 1     
   43   20   46 1     
   44   21   26 1     
   45   21   22 1     
   46   21   24 1     
   47   22   23 1     
   48   22   47 1     
   49   22   48 1     
   50   23   49 1     
   51   24   25 1     
   52   24   50 1     
   53   24   51 1     
   54   25   26 1     
   55   26   52 1     
   56   26   53 1     
   57    3   54 1     
   58    3   55 1     
   59   10   56 1     
   60   12   57 1     
   61   14   58 1     
   62   17   59 1     
   63   23   60 1     
   64   23   61 1     
   65   25   62 1     
   66   25   63 1     
@<TRIPOS>SUBSTRUCTURE
      1 S1             1
@<TRIPOS>SET
LONE_PAIRS      STATIC     ATOMS    <user>   **** ""
10 54 55 56 57 58 59 60 61 62 63
DONOR_HYDROGENS      STATIC     ATOMS    <user>   **** ""
1 49
ATOM$BLUE        STATIC     ATOMS    COLORGROUP SYSTEM
10 54 55 56 57 58 59 60 61 62 63
ATOM$RED        STATIC     ATOMS    COLORGROUP SYSTEM
1 49
