AV-unprocessed.smi:290|AV-procd|sdf|2232|dock9
  -GOLD-   2262022 93D 1   1.00000     0.00000
 Structure written by MMmdl.
 59 62  0  0  0  0  0  0  0  0  2 V2000
  152.5506  145.1922  158.6259 C   0  0  0  0  0  0  0  0  0  0  0  0
  152.9028  143.7857  158.1107 C   0  0  1  0  0  0  0  0  0  0  0  0
  153.8025  143.2169  159.0643 O   0  0  0  0  0  0  0  0  0  0  0  0
  153.3239  141.9574  159.5159 C   0  0  0  0  0  0  0  0  0  0  0  0
  151.8187  142.0404  159.3140 C   0  0  0  0  0  0  0  0  0  0  0  0
  151.7150  142.7976  157.9953 C   0  0  1  0  0  0  0  0  0  0  0  0
  150.4581  143.4502  157.9378 O   0  0  0  0  0  0  0  0  0  0  0  0
  151.8559  141.9013  156.7361 C   0  0  0  0  0  0  0  0  0  0  0  0
  150.9960  140.7274  156.7389 N   0  0  0  0  0  0  0  0  0  0  0  0
  149.6191  140.7100  156.7325 C   0  0  0  0  0  0  0  0  0  0  0  0
  149.0765  139.5225  156.7316 N   0  0  0  0  0  0  0  0  0  0  0  0
  150.1631  138.6559  156.7291 C   0  0  0  0  0  0  0  0  0  0  0  0
  150.3062  137.2397  156.7266 C   0  0  0  0  0  0  0  0  0  0  0  0
  149.2786  136.3627  156.7253 N   0  0  0  0  0  0  0  0  0  0  0  0
  147.9554  136.9649  156.7954 C   0  0  0  0  0  0  0  0  0  0  0  0
  147.1571  136.3775  155.6372 C   0  0  0  0  0  0  0  0  0  0  0  0
  147.8374  135.0328  155.3452 C   0  0  1  0  0  0  0  0  0  0  0  0
  147.5433  134.5822  153.9500 N   0  3  1  0  0  0  0  0  0  0  0  0
  148.2877  133.3801  153.5037 C   0  0  0  0  0  0  0  0  0  0  0  0
  146.0846  134.4447  153.6873 C   0  0  0  0  0  0  0  0  0  0  0  0
  145.7865  134.2564  152.1907 C   0  0  0  0  0  0  0  0  0  0  0  0
  145.9630  135.4775  151.5040 O   0  0  0  0  0  0  0  0  0  0  0  0
  149.3178  135.3644  155.6575 C   0  0  2  0  0  0  0  0  0  0  0  0
  150.1763  134.1674  156.1163 C   0  0  0  0  0  0  0  0  0  0  0  0
  151.5597  136.7252  156.7185 N   0  0  0  0  0  0  0  0  0  0  0  0
  152.6164  137.5437  156.7126 C   0  0  0  0  0  0  0  0  0  0  0  0
  152.6390  138.8786  156.7145 N   0  0  0  0  0  0  0  0  0  0  0  0
  151.3774  139.3972  156.7248 C   0  0  0  0  0  0  0  0  0  0  0  0
  147.4837  134.2842  156.0569 H   0  0  0  0  0  0  0  0  0  0  0  0
  149.7738  135.8114  154.7729 H   0  0  0  0  0  0  0  0  0  0  0  0
  151.8963  145.7180  157.9304 H   0  0  0  0  0  0  0  0  0  0  0  0
  153.4500  145.7962  158.7466 H   0  0  0  0  0  0  0  0  0  0  0  0
  152.0496  145.1478  159.5936 H   0  0  0  0  0  0  0  0  0  0  0  0
  153.4169  143.8845  157.1538 H   0  0  0  0  0  0  0  0  0  0  0  0
  153.7562  141.1648  158.9040 H   0  0  0  0  0  0  0  0  0  0  0  0
  153.5997  141.7740  160.5545 H   0  0  0  0  0  0  0  0  0  0  0  0
  151.3287  141.0679  159.3228 H   0  0  0  0  0  0  0  0  0  0  0  0
  151.3861  142.6289  160.1249 H   0  0  0  0  0  0  0  0  0  0  0  0
  150.4111  143.9379  157.1301 H   0  0  0  0  0  0  0  0  0  0  0  0
  151.6325  142.4812  155.8395 H   0  0  0  0  0  0  0  0  0  0  0  0
  152.8870  141.5648  156.6217 H   0  0  0  0  0  0  0  0  0  0  0  0
  149.0260  141.6134  156.7311 H   0  0  0  0  0  0  0  0  0  0  0  0
  147.5061  136.6765  157.7462 H   0  0  0  0  0  0  0  0  0  0  0  0
  147.9704  138.0555  156.7594 H   0  0  0  0  0  0  0  0  0  0  0  0
  146.0981  136.2903  155.8794 H   0  0  0  0  0  0  0  0  0  0  0  0
  147.2471  137.0367  154.7722 H   0  0  0  0  0  0  0  0  0  0  0  0
  148.0903  132.5317  154.1596 H   0  0  0  0  0  0  0  0  0  0  0  0
  149.3605  133.5677  153.4737 H   0  0  0  0  0  0  0  0  0  0  0  0
  147.9996  133.0903  152.4937 H   0  0  0  0  0  0  0  0  0  0  0  0
  145.6930  133.6009  154.2574 H   0  0  0  0  0  0  0  0  0  0  0  0
  145.5294  135.3131  154.0413 H   0  0  0  0  0  0  0  0  0  0  0  0
  146.4192  133.4909  151.7423 H   0  0  0  0  0  0  0  0  0  0  0  0
  144.7538  133.9346  152.0535 H   0  0  0  0  0  0  0  0  0  0  0  0
  146.8266  135.8116  151.6950 H   0  0  0  0  0  0  0  0  0  0  0  0
  150.2721  133.3931  155.3595 H   0  0  0  0  0  0  0  0  0  0  0  0
  149.7558  133.7024  157.0084 H   0  0  0  0  0  0  0  0  0  0  0  0
  151.1890  134.4875  156.3629 H   0  0  0  0  0  0  0  0  0  0  0  0
  153.5823  137.0602  156.7047 H   0  0  0  0  0  0  0  0  0  0  0  0
  147.8588  135.3371  153.3569 H   0  0  0  0  0  0  0  0  0  0  0  0
  1  2  1  0  0  0  0
  1 31  1  0  0  0  0
  1 32  1  0  0  0  0
  1 33  1  0  0  0  0
  2  6  1  0  0  0  0
  2  3  1  0  0  0  0
  2 34  1  0  0  0  0
  3  4  1  0  0  0  0
  4  5  1  0  0  0  0
  4 35  1  0  0  0  0
  4 36  1  0  0  0  0
  5  6  1  0  0  0  0
  5 37  1  0  0  0  0
  5 38  1  0  0  0  0
  6  7  1  0  0  0  0
  6  8  1  0  0  0  0
  7 39  1  0  0  0  0
  8  9  1  0  0  0  0
  8 40  1  0  0  0  0
  8 41  1  0  0  0  0
  9 28  1  0  0  0  0
  9 10  1  0  0  0  0
 10 11  2  0  0  0  0
 10 42  1  0  0  0  0
 11 12  1  0  0  0  0
 12 28  2  0  0  0  0
 12 13  1  0  0  0  0
 13 14  1  0  0  0  0
 13 25  2  0  0  0  0
 14 23  1  0  0  0  0
 14 15  1  0  0  0  0
 15 16  1  0  0  0  0
 15 43  1  0  0  0  0
 15 44  1  0  0  0  0
 16 17  1  0  0  0  0
 16 45  1  0  0  0  0
 16 46  1  0  0  0  0
 17 29  1  0  0  0  0
 17 18  1  0  0  0  0
 17 23  1  0  0  0  0
 18 19  1  0  0  0  0
 18 20  1  0  0  0  0
 18 59  1  0  0  0  0
 19 47  1  0  0  0  0
 19 48  1  0  0  0  0
 19 49  1  0  0  0  0
 20 21  1  0  0  0  0
 20 50  1  0  0  0  0
 20 51  1  0  0  0  0
 21 22  1  0  0  0  0
 21 52  1  0  0  0  0
 21 53  1  0  0  0  0
 22 54  1  0  0  0  0
 23 30  1  0  0  0  0
 23 24  1  0  0  0  0
 24 55  1  0  0  0  0
 24 56  1  0  0  0  0
 24 57  1  0  0  0  0
 25 26  1  0  0  0  0
 26 27  2  0  0  0  0
 26 58  1  0  0  0  0
 27 28  1  0  0  0  0
M  CHG  1  18   1
M  END
> <s_m_source_file>
AV-unprocessed.smi

> <i_m_source_file_index>
290

> <i_lp_mmshare_version>
43012

> <i_f3d_flags>
0

> <s_epik_input>
W0NIMl0xW0NIMl1PW0NAQEhdKFtDSDNdKVtDQEBdMShbT0hdKVtDSDJdbihbY0hdbjIpYyhjMjMpbltjSF1uYzNONFtDSDJdW0NIMl1bQ0BIXShbQ0BIXTRbQ0gzXSlOKFtDSDNdKVtDSDJdW0NIMl1bT0hd

> <s_epik_cmdline>
J2VwaWtfcHl0aG9uJywgJy1waCcsICc3LjAnLCAnLXRuJywgJzgnLCAnLW1hJywgJzIwMCcsICctbWV0YWxfYmluZGluZycsICctaW1hZScsICc8aW5maWxlLm1hZT4nLCAnLW9tYWUnLCAnPG91dGZpbGUubWFlPic=

> <r_lp_tautomer_probability>
1

> <r_epik_Ionization_Penalty>
0.0036983

> <r_epik_Ionization_Penalty_Charging>
0.0032725

> <r_epik_Ionization_Penalty_Neutral>
0.000425798

> <r_epik_State_Penalty>
-0

> <r_epik_Charging_Adjusted_Penalty>
0.0032725

> <i_epik_Tot_Q>
1

> <i_epik_Tot_abs_Q>
1

> <r_epik_Metal_State_Penalty>
-0

> <b_epik_Metal_Only>
0

> <s_lp_Force_Field>
OPLS_2005

> <r_lp_Energy>
64.3392

> <b_lp_Chiralities_Consistent>
1

> <s_lp_Variant>
AV-unprocessed.smi:290-18

> <Gold.Version>
5.8.1

> <Gold.Id.Protein>
6NUR|6NUR_protein|mol2

> <Gold.PLP.Fitness>
52.8770

> <Gold.PLP.PLP>
-37.4323

> <Gold.PLP.part.hbond>
-4.2731

> <Gold.PLP.part.metal>
0.0000

> <Gold.PLP.part.buried>
-6.6919

> <Gold.PLP.part.nonpolar>
-25.0751

> <Gold.PLP.part.repulsive>
0.0089

> <Gold.PLP.ligand.clash>
0.0000

> <Gold.PLP.ligand.torsion>
0.2769

> <Gold.PLP.Chemscore.Hbond>
5.2358

> <Gold.PLP.Chemscore.CHOScore>
0.0000

> <Gold.PLP.Chemscore.Metal>
0.0000

> <Gold.Chemscore.Hbonds>
donor molecule, donor type, donor heavy atom, donor atom, acceptor molecule, acceptor atom, score
      L1  H     7    39       P1  8028  0.40
      L1  H    18    59       P1  7948  1.95
      L1  H    22    54       P1  7948  0.73
      P1  H  7997  8009       L1    27  0.67

> <Gold.PLP.Chemscore.Internal.Correction>
0.2912

> <Gold.Rescore>
     Score         DG    S(hbond)    S(metal)    S(lipo)     H(rot)  DE(clash)    DE(int)     intcor
     15.91     -19.36       3.75        0.00      91.74       3.67       0.50       2.95       ----

> <Gold.Chemscore.Fitness>
15.9080

> <Gold.Chemscore.DG>
-19.3582

> <Gold.Chemscore.ZeroCoef>
-5.4800

> <Gold.Chemscore.Hbond>
3.7511

> <Gold.Chemscore.Metal>
0.0000

> <Gold.Chemscore.Lipo>
91.7440

> <Gold.Chemscore.Internal_Hbond>
0.0000

> <Gold.Chemscore.DEClash>
0.5027

> <Gold.Chemscore.DEInternal>
2.9475

> <Gold.Chemscore.Rot>
3.6658

> <Gold.Chemscore.Internal.Correction>
   9.000000E+99

> <Gold.Chemscore.Hbonds>
donor molecule, donor type, donor heavy atom, donor atom, acceptor molecule, acceptor atom, score
      L1  H     7    39       P1  8028  0.38
      L1  H    18    59       P1  7948  0.89
      L1  H    22    54       P1  7948  0.73
      P1  H  7997  8009       L1    27  0.64

> <Gold.Chemscore.Hbond.Weighted>
-12.5286

> <Gold.Chemscore.Metal.Weighted>
-0.0000

> <Gold.Chemscore.Lipo.Weighted>
-10.7341

> <Gold.Chemscore.Internal_Hbond.Weighted>
0.0000

> <Gold.Chemscore.DEClash.Weighted>
0.5027

> <Gold.Chemscore.DEInternal.Weighted>
2.9475

> <Gold.Chemscore.Rot.Weighted>
9.3844

> <Gold.Chemscore.Internal.Correction.Weighted>
   9.000000E+99

> <Gold.Protein.RotatedTorsions>
[ 6907 6896 6895 6894 ] final -141.40 input  -60.11 | X-H torsion
[ 7974 7965 7964 7962 ] final  -45.01 input  175.53 | X-H torsion
[ 8008 7997 7996 7995 ] final  167.39 input   59.86 | X-H torsion
[ 10167 10162 10161 10158 ] final  -29.62 input  -65.29 | X-H torsion
[ 10718 10713 10712 10709 ] final   18.95 input   66.30 | X-H torsion
[ 10763 10752 10751 10750 ] final -159.08 input  -60.55 | X-H torsion
[ 11005 11000 10999 10996 ] final   47.43 input  -57.11 | X-H torsion

> <Gold.Protein.ActiveResidues>
 VAL166  LYS551  ARG553  GLY616  TRP617  ASP618  TYR619  PRO620  LYS621  CYS622 
 ASP623  PHE694  ASN695  SER759  ASP760  ASP761  ALA762  ILE779  LEU786  VAL792 
 PHE793  MET794  SER795  GLU796  ALA797  LYS798  CYS799  TRP800  GLU811  SER814 

> <Gold.Protein.RotatedAtoms>
  151.0733  133.5448  159.2625 H   0  0  0  0  0  0  0  0  0  0  0  0  # atno 6907 bound_to 6896
  151.2379  135.0578  159.9023 H   0  0  0  0  0  0  0  0  0  0  0  0  # atno 6908 bound_to 6896
  152.5414  134.0512  159.8164 H   0  0  0  0  0  0  0  0  0  0  0  0  # atno 6909 bound_to 6896
  145.9863  140.7229  142.9339 H   0  0  0  0  0  0  0  0  0  0  0  0  # atno 7974 bound_to 7965
  156.1638  140.1618  156.8567 H   0  0  0  0  0  0  0  0  0  0  0  0  # atno 8008 bound_to 7997
  154.5187  140.0783  156.8165 H   0  0  0  0  0  0  0  0  0  0  0  0  # atno 8009 bound_to 7997
  155.3653  140.3397  155.4244 H   0  0  0  0  0  0  0  0  0  0  0  0  # atno 8010 bound_to 7997
  140.7258  143.3914  151.1423 H   0  0  0  0  0  0  0  0  0  0  0  0  # atno 10167 bound_to 10162
  157.1036  130.6478  149.5879 H   0  0  0  0  0  0  0  0  0  0  0  0  # atno 10718 bound_to 10713
  154.7504  135.3091  154.8568 H   0  0  0  0  0  0  0  0  0  0  0  0  # atno 10763 bound_to 10752
  153.9356  135.6780  153.4749 H   0  0  0  0  0  0  0  0  0  0  0  0  # atno 10764 bound_to 10752
  153.1100  135.4871  154.8947 H   0  0  0  0  0  0  0  0  0  0  0  0  # atno 10765 bound_to 10752
  140.1280  134.4743  155.8544 H   0  0  0  0  0  0  0  0  0  0  0  0  # atno 11005 bound_to 11000
  144.6876  140.2994  143.7266 LP  0  0  0  0  0  0  0  0  0  0  0  0  # atno 17320 bound_to 7965
  145.7696  139.1852  143.2220 LP  0  0  0  0  0  0  0  0  0  0  0  0  # atno 17321 bound_to 7965
  139.7520  143.8765  152.3079 LP  0  0  0  0  0  0  0  0  0  0  0  0  # atno 17342 bound_to 10162
  139.8621  144.7111  150.9087 LP  0  0  0  0  0  0  0  0  0  0  0  0  # atno 17343 bound_to 10162
  155.9867  130.4903  150.7093 LP  0  0  0  0  0  0  0  0  0  0  0  0  # atno 17370 bound_to 10713
  157.4620  131.0884  151.0736 LP  0  0  0  0  0  0  0  0  0  0  0  0  # atno 17371 bound_to 10713
  141.2165  133.6785  156.7015 LP  0  0  0  0  0  0  0  0  0  0  0  0  # atno 17394 bound_to 11000
  140.2879  134.8264  157.3991 LP  0  0  0  0  0  0  0  0  0  0  0  0  # atno 17395 bound_to 11000

$$$$
