AV-unprocessed.smi:1801|AV-procd|sdf|7269|dock3
  -GOLD-   22720 8523D 1   1.00000     0.00000
 Structure written by MMmdl.
 37 38  0  0  0  0  0  0  0  0  3 V2000
  147.7564  133.4133  155.0378 C   0  0  0  0  0  0  0  0  0  0  0  0
  147.8754  134.9082  154.6979 C   0  0  2  0  0  0  0  0  0  0  0  0
  148.3054  135.7071  155.9490 C   0  0  0  0  0  0  0  0  0  0  0  0
  147.7912  135.1336  157.1901 N   0  0  0  0  0  0  0  0  0  0  0  0
  148.5185  134.7943  158.2639 C   0  0  0  0  0  0  0  0  0  0  0  0
  149.7450  134.9186  158.2418 O   0  0  0  0  0  0  0  0  0  0  0  0
  147.7767  134.3462  159.3012 N   0  5  0  0  0  0  0  0  0  0  0  0
  147.5981  135.1222  160.3831 C   0  0  0  0  0  0  0  0  0  0  0  0
  147.6099  136.4631  160.3148 N   0  0  0  0  0  0  0  0  0  0  0  0
  147.4114  137.0741  161.5455 N   0  0  0  0  0  0  0  0  0  0  0  0
  147.2629  136.1735  162.5167 C   0  0  0  0  0  0  0  0  0  0  0  0
  147.3544  134.4977  162.0169 S   0  0  0  0  0  0  0  0  0  0  0  0
  146.5642  135.4500  154.0810 C   0  0  0  0  0  0  0  0  0  0  0  0
  146.5353  135.3110  152.6060 N   0  3  0  0  0  0  0  0  0  0  0  0
  146.3441  133.9243  152.1350 C   0  0  0  0  0  0  0  0  0  0  0  0
  145.7517  134.0588  150.7363 C   0  0  0  0  0  0  0  0  0  0  0  0
  144.8380  135.2717  150.8739 C   0  0  0  0  0  0  0  0  0  0  0  0
  145.5328  136.1596  151.9144 C   0  0  0  0  0  0  0  0  0  0  0  0
  146.9748  133.2353  155.7769 H   0  0  0  0  0  0  0  0  0  0  0  0
  148.6918  133.0297  155.4461 H   0  0  0  0  0  0  0  0  0  0  0  0
  147.5213  132.8199  154.1541 H   0  0  0  0  0  0  0  0  0  0  0  0
  148.6733  135.0059  153.9618 H   0  0  0  0  0  0  0  0  0  0  0  0
  149.3932  135.7342  156.0180 H   0  0  0  0  0  0  0  0  0  0  0  0
  147.9766  136.7447  155.8711 H   0  0  0  0  0  0  0  0  0  0  0  0
  146.7924  134.9981  157.2498 H   0  0  0  0  0  0  0  0  0  0  0  0
  147.1017  136.4977  163.5340 H   0  0  0  0  0  0  0  0  0  0  0  0
  145.7174  134.9134  154.5115 H   0  0  0  0  0  0  0  0  0  0  0  0
  146.4116  136.5024  154.3232 H   0  0  0  0  0  0  0  0  0  0  0  0
  147.2796  133.3643  152.1437 H   0  0  0  0  0  0  0  0  0  0  0  0
  145.6343  133.4080  152.7839 H   0  0  0  0  0  0  0  0  0  0  0  0
  146.5428  134.2677  150.0146 H   0  0  0  0  0  0  0  0  0  0  0  0
  145.2231  133.1626  150.4101 H   0  0  0  0  0  0  0  0  0  0  0  0
  144.6719  135.7839  149.9258 H   0  0  0  0  0  0  0  0  0  0  0  0
  143.8660  134.9548  151.2551 H   0  0  0  0  0  0  0  0  0  0  0  0
  144.8008  136.5838  152.6041 H   0  0  0  0  0  0  0  0  0  0  0  0
  146.0521  136.9901  151.4353 H   0  0  0  0  0  0  0  0  0  0  0  0
  147.4391  135.6001  152.2605 H   0  0  0  0  0  0  0  0  0  0  0  0
  1  2  1  0  0  0  0
  1 19  1  0  0  0  0
  1 20  1  0  0  0  0
  1 21  1  0  0  0  0
  2  3  1  0  0  0  0
  2 13  1  0  0  0  0
  2 22  1  0  0  0  0
  3  4  1  0  0  0  0
  3 23  1  0  0  0  0
  3 24  1  0  0  0  0
  4  5  1  0  0  0  0
  4 25  1  0  0  0  0
  5  6  2  0  0  0  0
  5  7  1  0  0  0  0
  7  8  1  0  0  0  0
  8 12  1  0  0  0  0
  8  9  2  0  0  0  0
  9 10  1  0  0  0  0
 10 11  2  0  0  0  0
 11 12  1  0  0  0  0
 11 26  1  0  0  0  0
 13 14  1  0  0  0  0
 13 27  1  0  0  0  0
 13 28  1  0  0  0  0
 14 18  1  0  0  0  0
 14 15  1  0  0  0  0
 14 37  1  0  0  0  0
 15 16  1  0  0  0  0
 15 29  1  0  0  0  0
 15 30  1  0  0  0  0
 16 17  1  0  0  0  0
 16 31  1  0  0  0  0
 16 32  1  0  0  0  0
 17 18  1  0  0  0  0
 17 33  1  0  0  0  0
 17 34  1  0  0  0  0
 18 35  1  0  0  0  0
 18 36  1  0  0  0  0
M  CHG  1   7  -1
M  CHG  1  14   1
M  END
> <s_m_source_file>
AV-unprocessed.smi

> <i_m_source_file_index>
1801

> <i_lp_mmshare_version>
43012

> <i_f3d_flags>
0

> <s_epik_input>
W0NIMl0xW0NIMl1bQ0gyXVtDSDJdTjFbQ0gyXVtDQEhdKFtDSDNdKVtDSDJdW05IXUMoPU8pW05IXWMybm5bY0hdczI=

> <s_epik_cmdline>
J2VwaWtfcHl0aG9uJywgJy1waCcsICc3LjAnLCAnLXRuJywgJzgnLCAnLW1hJywgJzIwMCcsICctbWV0YWxfYmluZGluZycsICctaW1hZScsICc8aW5maWxlLm1hZT4nLCAnLW9tYWUnLCAnPG91dGZpbGUubWFlPic=

> <r_lp_tautomer_probability>
1

> <r_epik_Ionization_Penalty>
3.29721

> <r_epik_Ionization_Penalty_Charging>
3.25987

> <r_epik_Ionization_Penalty_Neutral>
0.0373399

> <r_epik_State_Penalty>
3.2571

> <r_epik_Charging_Adjusted_Penalty>
6.51697

> <i_epik_Tot_Q>
0

> <i_epik_Tot_abs_Q>
2

> <r_epik_Metal_State_Penalty>
0.477553

> <b_epik_Metal_Only>
1

> <s_lp_Force_Field>
OPLS_2005

> <r_lp_Energy>
22.4794

> <b_lp_Chiralities_Consistent>
1

> <s_lp_Variant>
AV-unprocessed.smi:1801-3

> <Gold.Version>
5.8.1

> <Gold.Id.Protein>
6NUR|6NUR_protein|mol2

> <Gold.PLP.Fitness>
37.5671

> <Gold.PLP.PLP>
-26.5777

> <Gold.PLP.part.hbond>
-4.0000

> <Gold.PLP.part.metal>
0.0000

> <Gold.PLP.part.buried>
-3.4987

> <Gold.PLP.part.nonpolar>
-18.5573

> <Gold.PLP.part.repulsive>
0.0155

> <Gold.PLP.ligand.clash>
0.0000

> <Gold.PLP.ligand.torsion>
1.7720

> <Gold.PLP.Chemscore.Hbond>
4.7920

> <Gold.PLP.Chemscore.CHOScore>
0.0000

> <Gold.PLP.Chemscore.Metal>
0.0000

> <Gold.Chemscore.Hbonds>
donor molecule, donor type, donor heavy atom, donor atom, acceptor molecule, acceptor atom, score
      L1  H    14    37       P1  7948  2.00
      P1  H  6896  6908       L1     6  1.00
      P1  H  6931  6943       L1    10  0.97
      P1  H  6934  6947       L1    10  0.84

> <Gold.PLP.Chemscore.Internal.Correction>
0.1575

> <Gold.Rescore>
     Score         DG    S(hbond)    S(metal)    S(lipo)     H(rot)  DE(clash)    DE(int)     intcor
     15.73     -17.52       3.35        0.00      49.53       1.93       0.11       1.68       ----

> <Gold.Chemscore.Fitness>
15.7253

> <Gold.Chemscore.DG>
-17.5220

> <Gold.Chemscore.ZeroCoef>
-5.4800

> <Gold.Chemscore.Hbond>
3.3469

> <Gold.Chemscore.Metal>
0.0000

> <Gold.Chemscore.Lipo>
49.5322

> <Gold.Chemscore.Internal_Hbond>
0.0000

> <Gold.Chemscore.DEClash>
0.1129

> <Gold.Chemscore.DEInternal>
1.6838

> <Gold.Chemscore.Rot>
1.9266

> <Gold.Chemscore.Internal.Correction>
   9.000000E+99

> <Gold.Chemscore.Hbonds>
donor molecule, donor type, donor heavy atom, donor atom, acceptor molecule, acceptor atom, score
      L1  H    14    37       P1  7948  1.00
      P1  H  6896  6908       L1     6  0.94
      P1  H  6931  6943       L1    10  0.42
      P1  H  6934  6947       L1    10  0.20

> <Gold.Chemscore.Hbond.Weighted>
-11.1788

> <Gold.Chemscore.Metal.Weighted>
-0.0000

> <Gold.Chemscore.Lipo.Weighted>
-5.7953

> <Gold.Chemscore.Internal_Hbond.Weighted>
0.0000

> <Gold.Chemscore.DEClash.Weighted>
0.1129

> <Gold.Chemscore.DEInternal.Weighted>
1.6838

> <Gold.Chemscore.Rot.Weighted>
4.9321

> <Gold.Chemscore.Internal.Correction.Weighted>
   9.000000E+99

> <Gold.Protein.RotatedTorsions>
[ 6907 6896 6895 6894 ] final  146.36 input  -60.11 | X-H torsion
[ 7974 7965 7964 7962 ] final   52.72 input  175.53 | X-H torsion
[ 8008 7997 7996 7995 ] final   81.88 input   59.86 | X-H torsion
[ 10167 10162 10161 10158 ] final  -35.17 input  -65.29 | X-H torsion
[ 10718 10713 10712 10709 ] final -109.96 input   66.30 | X-H torsion
[ 10763 10752 10751 10750 ] final -176.99 input  -60.55 | X-H torsion
[ 11005 11000 10999 10996 ] final  154.19 input  -57.11 | X-H torsion

> <Gold.Protein.ActiveResidues>
 VAL166  LYS551  ARG553  GLY616  TRP617  ASP618  TYR619  PRO620  LYS621  CYS622 
 ASP623  PHE694  ASN695  SER759  ASP760  ASP761  ALA762  ILE779  LEU786  VAL792 
 PHE793  MET794  SER795  GLU796  ALA797  LYS798  CYS799  TRP800  GLU811  SER814 

> <Gold.Protein.RotatedAtoms>
  152.1689  133.4630  159.4898 H   0  0  0  0  0  0  0  0  0  0  0  0  # atno 6907 bound_to 6896
  150.6917  134.1978  159.4319 H   0  0  0  0  0  0  0  0  0  0  0  0  # atno 6908 bound_to 6896
  151.9884  134.9991  160.0611 H   0  0  0  0  0  0  0  0  0  0  0  0  # atno 6909 bound_to 6896
  145.9785  139.4218  143.0147 H   0  0  0  0  0  0  0  0  0  0  0  0  # atno 7974 bound_to 7965
  155.9031  140.3432  155.6041 H   0  0  0  0  0  0  0  0  0  0  0  0  # atno 8008 bound_to 7997
  155.7477  140.0816  157.2235 H   0  0  0  0  0  0  0  0  0  0  0  0  # atno 8009 bound_to 7997
  154.4046  140.1559  156.2675 H   0  0  0  0  0  0  0  0  0  0  0  0  # atno 8010 bound_to 7997
  140.7171  143.3496  151.2183 H   0  0  0  0  0  0  0  0  0  0  0  0  # atno 10167 bound_to 10162
  156.0565  130.5791  150.8172 H   0  0  0  0  0  0  0  0  0  0  0  0  # atno 10718 bound_to 10713
  154.5656  135.2823  155.0877 H   0  0  0  0  0  0  0  0  0  0  0  0  # atno 10763 bound_to 10752
  154.2269  135.6381  153.5166 H   0  0  0  0  0  0  0  0  0  0  0  0  # atno 10764 bound_to 10752
  153.0042  135.5528  154.6263 H   0  0  0  0  0  0  0  0  0  0  0  0  # atno 10765 bound_to 10752
  140.1467  134.8703  157.2401 H   0  0  0  0  0  0  0  0  0  0  0  0  # atno 11005 bound_to 11000
  145.7804  140.9858  143.1102 LP  0  0  0  0  0  0  0  0  0  0  0  0  # atno 17320 bound_to 7965
  144.6855  139.9558  143.7479 LP  0  0  0  0  0  0  0  0  0  0  0  0  # atno 17321 bound_to 7965
  139.7024  143.9511  152.2911 LP  0  0  0  0  0  0  0  0  0  0  0  0  # atno 17342 bound_to 10162
  139.9209  144.6800  150.8463 LP  0  0  0  0  0  0  0  0  0  0  0  0  # atno 17343 bound_to 10162
  157.5539  131.0944  150.9656 LP  0  0  0  0  0  0  0  0  0  0  0  0  # atno 17370 bound_to 10713
  156.9909  130.5563  149.5303 LP  0  0  0  0  0  0  0  0  0  0  0  0  # atno 17371 bound_to 10713
  140.2655  134.3521  155.7391 LP  0  0  0  0  0  0  0  0  0  0  0  0  # atno 17394 bound_to 11000
  141.2193  133.7394  156.9145 LP  0  0  0  0  0  0  0  0  0  0  0  0  # atno 17395 bound_to 11000

$$$$
