AV-unprocessed.smi:2845|AV-procd|sdf|10944|dock7
  -GOLD-   2272015393D 1   1.00000     0.00000
 Structure written by MMmdl.
 42 44  0  0  0  0  0  0  0  0  1 V2000
  152.7917  143.1887  161.4509 C   0  0  0  0  0  0  0  0  0  0  0  0
  152.2602  142.7847  160.0871 C   0  0  0  0  0  0  0  0  0  0  0  0
  152.6584  141.5465  159.5329 C   0  0  0  0  0  0  0  0  0  0  0  0
  152.1870  141.1343  158.2670 C   0  0  0  0  0  0  0  0  0  0  0  0
  152.4405  139.9824  157.5406 N   0  0  0  0  0  0  0  0  0  0  0  0
  151.7099  140.1869  156.4474 C   0  0  0  0  0  0  0  0  0  0  0  0
  151.0153  141.3386  156.3800 N   0  0  0  0  0  0  0  0  0  0  0  0
  150.1502  141.7937  155.3097 C   0  0  0  0  0  0  0  0  0  0  0  0
  148.7453  141.1594  155.3967 C   0  0  1  0  0  0  0  0  0  0  0  0
  147.7769  142.1069  154.9953 O   0  0  0  0  0  0  0  0  0  0  0  0
  148.5883  139.8838  154.5438 C   0  0  0  0  0  0  0  0  0  0  0  0
  149.5300  138.8417  154.9173 N   0  0  0  0  0  0  0  0  0  0  0  0
  150.6074  138.3736  154.2801 C   0  0  0  0  0  0  0  0  0  0  0  0
  151.2493  137.4154  154.9370 N   0  0  0  0  0  0  0  0  0  0  0  0
  150.4438  137.3349  156.0356 C   0  0  0  0  0  0  0  0  0  0  0  0
  150.8173  136.2040  157.4122 S   0  0  1  0  0  0  0  0  0  0  0  0
  149.1563  135.3783  157.4289 C   0  0  0  0  0  0  0  0  0  0  0  0
  151.8169  135.1802  156.8695 O   0  0  0  0  0  0  0  0  0  0  0  0
  149.3884  138.1442  156.0700 N   0  0  0  0  0  0  0  0  0  0  0  0
  151.2992  142.0019  157.5676 C   0  0  0  0  0  0  0  0  0  0  0  0
  150.8961  143.2357  158.1073 C   0  0  0  0  0  0  0  0  0  0  0  0
  151.3766  143.6328  159.3718 C   0  0  0  0  0  0  0  0  0  0  0  0
  150.9363  144.9690  159.9430 C   0  0  0  0  0  0  0  0  0  0  0  0
  153.4662  142.4335  161.8554 H   0  0  0  0  0  0  0  0  0  0  0  0
  151.9712  143.3174  162.1573 H   0  0  0  0  0  0  0  0  0  0  0  0
  153.3425  144.1271  161.3841 H   0  0  0  0  0  0  0  0  0  0  0  0
  153.3318  140.9011  160.0774 H   0  0  0  0  0  0  0  0  0  0  0  0
  151.6785  139.4593  155.6496 H   0  0  0  0  0  0  0  0  0  0  0  0
  150.0885  142.8827  155.3325 H   0  0  0  0  0  0  0  0  0  0  0  0
  150.6399  141.5335  154.3713 H   0  0  0  0  0  0  0  0  0  0  0  0
  148.5294  140.9056  156.4356 H   0  0  0  0  0  0  0  0  0  0  0  0
  147.9887  142.9379  155.3928 H   0  0  0  0  0  0  0  0  0  0  0  0
  147.5796  139.4810  154.6439 H   0  0  0  0  0  0  0  0  0  0  0  0
  148.7331  140.1167  153.4878 H   0  0  0  0  0  0  0  0  0  0  0  0
  150.9383  138.7528  153.3242 H   0  0  0  0  0  0  0  0  0  0  0  0
  148.5036  135.8637  158.1544 H   0  0  0  0  0  0  0  0  0  0  0  0
  149.2619  134.3297  157.7059 H   0  0  0  0  0  0  0  0  0  0  0  0
  148.6820  135.4269  156.4485 H   0  0  0  0  0  0  0  0  0  0  0  0
  150.2251  143.8730  157.5506 H   0  0  0  0  0  0  0  0  0  0  0  0
  150.2588  145.4872  159.2640 H   0  0  0  0  0  0  0  0  0  0  0  0
  151.7977  145.6153  160.1116 H   0  0  0  0  0  0  0  0  0  0  0  0
  150.4167  144.8276  160.8908 H   0  0  0  0  0  0  0  0  0  0  0  0
  1  2  1  0  0  0  0
  1 24  1  0  0  0  0
  1 25  1  0  0  0  0
  1 26  1  0  0  0  0
  2 22  1  0  0  0  0
  2  3  2  0  0  0  0
  3  4  1  0  0  0  0
  3 27  1  0  0  0  0
  4 20  2  0  0  0  0
  4  5  1  0  0  0  0
  5  6  2  0  0  0  0
  6  7  1  0  0  0  0
  6 28  1  0  0  0  0
  7  8  1  0  0  0  0
  7 20  1  0  0  0  0
  8  9  1  0  0  0  0
  8 29  1  0  0  0  0
  8 30  1  0  0  0  0
  9 10  1  0  0  0  0
  9 11  1  0  0  0  0
  9 31  1  0  0  0  0
 10 32  1  0  0  0  0
 11 12  1  0  0  0  0
 11 33  1  0  0  0  0
 11 34  1  0  0  0  0
 12 19  1  0  0  0  0
 12 13  1  0  0  0  0
 13 14  2  0  0  0  0
 13 35  1  0  0  0  0
 14 15  1  0  0  0  0
 15 16  1  0  0  0  0
 15 19  2  0  0  0  0
 16 17  1  0  0  0  0
 16 18  2  0  0  0  0
 17 36  1  0  0  0  0
 17 37  1  0  0  0  0
 17 38  1  0  0  0  0
 20 21  1  0  0  0  0
 21 22  2  0  0  0  0
 21 39  1  0  0  0  0
 22 23  1  0  0  0  0
 23 40  1  0  0  0  0
 23 41  1  0  0  0  0
 23 42  1  0  0  0  0
M  END
> <s_m_source_file>
AV-unprocessed.smi

> <i_m_source_file_index>
2845

> <i_lp_mmshare_version>
43012

> <i_f3d_flags>
0

> <s_epik_input>
W0NIM11jKFtjSF0xKWMoW0NIM10pW2NIXWMoYzEyKW4oW2NIXW4yKVtDSDJdW0NASF0oW09IXSlbQ0gyXW4zW2NIXW5jKG4zKVtTQF0oPU8pW0NIM10=

> <s_epik_cmdline>
J2VwaWtfcHl0aG9uJywgJy1waCcsICc3LjAnLCAnLXRuJywgJzgnLCAnLW1hJywgJzIwMCcsICctbWV0YWxfYmluZGluZycsICctaW1hZScsICc8aW5maWxlLm1hZT4nLCAnLW9tYWUnLCAnPG91dGZpbGUubWFlPic=

> <r_lp_tautomer_probability>
1

> <r_epik_Ionization_Penalty>
0.0968684

> <r_epik_Ionization_Penalty_Charging>
0

> <r_epik_Ionization_Penalty_Neutral>
0.0968684

> <r_epik_State_Penalty>
0.0870047

> <r_epik_Charging_Adjusted_Penalty>
0.0870047

> <i_epik_Tot_Q>
0

> <i_epik_Tot_abs_Q>
0

> <r_epik_Metal_State_Penalty>
0.0746849

> <b_epik_Metal_Only>
0

> <s_lp_Force_Field>
OPLS_2005

> <r_lp_Energy>
8.02323

> <b_lp_Chiralities_Consistent>
1

> <s_lp_Variant>
AV-unprocessed.smi:2845-2

> <Gold.Version>
5.8.1

> <Gold.Id.Protein>
6NUR|6NUR_protein|mol2

> <Gold.PLP.Fitness>
51.4880

> <Gold.PLP.PLP>
-41.3970

> <Gold.PLP.part.hbond>
-3.0000

> <Gold.PLP.part.metal>
0.0000

> <Gold.PLP.part.buried>
-5.3411

> <Gold.PLP.part.nonpolar>
-33.0348

> <Gold.PLP.part.repulsive>
0.1842

> <Gold.PLP.ligand.clash>
0.0000

> <Gold.PLP.ligand.torsion>
1.4633

> <Gold.PLP.Chemscore.Hbond>
2.9913

> <Gold.PLP.Chemscore.CHOScore>
1.0000

> <Gold.PLP.Chemscore.Metal>
0.0000

> <Gold.Chemscore.Hbonds>
donor molecule, donor type, donor heavy atom, donor atom, acceptor molecule, acceptor atom, score
      L1  H    10    32       P1  8028  1.00
      P1  H  7997  8008       L1     5  0.66
      P1  H 10752 10763       L1    18  0.44
      L1  C    13    35       P1  7957  0.27

> <Gold.PLP.Chemscore.Internal.Correction>
1.0438

> <Gold.Rescore>
     Score         DG    S(hbond)    S(metal)    S(lipo)     H(rot)  DE(clash)    DE(int)     intcor
     14.36     -17.83       2.33        0.00      98.37       2.71       1.26       2.21       ----

> <Gold.Chemscore.Fitness>
14.3600

> <Gold.Chemscore.DG>
-17.8320

> <Gold.Chemscore.ZeroCoef>
-5.4800

> <Gold.Chemscore.Hbond>
2.3299

> <Gold.Chemscore.Metal>
0.0000

> <Gold.Chemscore.Lipo>
98.3734

> <Gold.Chemscore.Internal_Hbond>
0.0000

> <Gold.Chemscore.DEClash>
1.2571

> <Gold.Chemscore.DEInternal>
2.2149

> <Gold.Chemscore.Rot>
2.7108

> <Gold.Chemscore.Internal.Correction>
   9.000000E+99

> <Gold.Chemscore.Hbonds>
donor molecule, donor type, donor heavy atom, donor atom, acceptor molecule, acceptor atom, score
      L1  H    10    32       P1  8028  0.83
      P1  H  7997  8008       L1     5  0.10
      P1  H 10752 10763       L1    18  0.43

> <Gold.Chemscore.Hbond.Weighted>
-7.7820

> <Gold.Chemscore.Metal.Weighted>
-0.0000

> <Gold.Chemscore.Lipo.Weighted>
-11.5097

> <Gold.Chemscore.Internal_Hbond.Weighted>
0.0000

> <Gold.Chemscore.DEClash.Weighted>
1.2571

> <Gold.Chemscore.DEInternal.Weighted>
2.2149

> <Gold.Chemscore.Rot.Weighted>
6.9396

> <Gold.Chemscore.Internal.Correction.Weighted>
   9.000000E+99

> <Gold.Protein.RotatedTorsions>
[ 6907 6896 6895 6894 ] final  -94.66 input  -60.11 | X-H torsion
[ 7974 7965 7964 7962 ] final  -99.11 input  175.53 | X-H torsion
[ 8008 7997 7996 7995 ] final  -58.43 input   59.86 | X-H torsion
[ 10167 10162 10161 10158 ] final  -25.90 input  -65.29 | X-H torsion
[ 10718 10713 10712 10709 ] final   27.36 input   66.30 | X-H torsion
[ 10763 10752 10751 10750 ] final   90.13 input  -60.55 | X-H torsion
[ 11005 11000 10999 10996 ] final  173.52 input  -57.11 | X-H torsion

> <Gold.Protein.ActiveResidues>
 VAL166  LYS551  ARG553  GLY616  TRP617  ASP618  TYR619  PRO620  LYS621  CYS622 
 ASP623  PHE694  ASN695  SER759  ASP760  ASP761  ALA762  ILE779  LEU786  VAL792 
 PHE793  MET794  SER795  GLU796  ALA797  LYS798  CYS799  TRP800  GLU811  SER814 

> <Gold.Protein.RotatedAtoms>
  150.6946  134.1778  159.4236 H   0  0  0  0  0  0  0  0  0  0  0  0  # atno 6907 bound_to 6896
  151.9753  135.0054  160.0564 H   0  0  0  0  0  0  0  0  0  0  0  0  # atno 6908 bound_to 6896
  152.1804  133.4668  159.4992 H   0  0  0  0  0  0  0  0  0  0  0  0  # atno 6909 bound_to 6896
  145.3118  140.9402  143.2765 H   0  0  0  0  0  0  0  0  0  0  0  0  # atno 7974 bound_to 7965
  154.4308  140.1084  156.5955 H   0  0  0  0  0  0  0  0  0  0  0  0  # atno 8008 bound_to 7997
  155.5967  140.3493  155.4563 H   0  0  0  0  0  0  0  0  0  0  0  0  # atno 8009 bound_to 7997
  156.0205  140.1238  157.0352 H   0  0  0  0  0  0  0  0  0  0  0  0  # atno 8010 bound_to 7997
  140.7285  143.4225  151.0929 H   0  0  0  0  0  0  0  0  0  0  0  0  # atno 10167 bound_to 10162
  157.2191  130.6970  149.6262 H   0  0  0  0  0  0  0  0  0  0  0  0  # atno 10718 bound_to 10713
  153.1943  135.4445  155.0188 H   0  0  0  0  0  0  0  0  0  0  0  0  # atno 10763 bound_to 10752
  154.8109  135.3294  154.7309 H   0  0  0  0  0  0  0  0  0  0  0  0  # atno 10764 bound_to 10752
  153.7760  135.6981  153.4952 H   0  0  0  0  0  0  0  0  0  0  0  0  # atno 10765 bound_to 10752
  140.3414  134.7273  157.4204 H   0  0  0  0  0  0  0  0  0  0  0  0  # atno 11005 bound_to 11000
  144.9009  139.4650  143.6633 LP  0  0  0  0  0  0  0  0  0  0  0  0  # atno 17320 bound_to 7965
  146.3115  139.7763  142.9016 LP  0  0  0  0  0  0  0  0  0  0  0  0  # atno 17321 bound_to 7965
  139.7872  143.8270  152.3146 LP  0  0  0  0  0  0  0  0  0  0  0  0  # atno 17342 bound_to 10162
  139.8242  144.7282  150.9534 LP  0  0  0  0  0  0  0  0  0  0  0  0  # atno 17343 bound_to 10162
  155.9684  130.4526  150.5779 LP  0  0  0  0  0  0  0  0  0  0  0  0  # atno 17370 bound_to 10713
  157.3594  131.0747  151.1649 LP  0  0  0  0  0  0  0  0  0  0  0  0  # atno 17371 bound_to 10713
  140.0778  134.5773  155.8572 LP  0  0  0  0  0  0  0  0  0  0  0  0  # atno 17394 bound_to 11000
  141.2037  133.6634  156.6081 LP  0  0  0  0  0  0  0  0  0  0  0  0  # atno 17395 bound_to 11000

$$$$
