#       Name:                AV-unprocessed.smi:2262
#       Creating user name   scv26
#       Creation time:       Fri Mar 27 12:34:29 2020


#       File generated by GOLD software.
#

@<TRIPOS>MOLECULE
AV-unprocessed.smi:2262
    48    49     1
SMALL
NO_CHARGES


@<TRIPOS>ATOM
      1 ****        -4.9031  -1.2358   2.6917 C.3            1 S1                 0.0000
      2 ****        -4.3284  -0.4821   1.5566 N.4            1 S1                 1.0000
      3 ****        -4.0851  -1.3423   0.3721 C.3            1 S1                 0.0000
      4 ****        -3.6158  -0.5070  -0.8333 C.3            1 S1                 0.0000
      5 ****        -2.3768   0.3445  -0.5025 C.3            1 S1                 0.0000
      6 ****        -1.1872  -0.4994  -0.3859 N.am           1 S1                 0.0000
      7 ****         0.0774  -0.0717  -0.5196 C.2            1 S1                 0.0000
      8 ****         0.3740   1.1057  -0.7245 O.2            1 S1                 0.0000
      9 ****         0.9532  -1.0854  -0.3987 N.am           1 S1                 0.0000
     10 ****         2.3690  -1.0351  -0.5071 C.ar           1 S1                 0.0000
     11 ****         3.0325  -2.2671  -0.3149 C.ar           1 S1                 0.0000
     12 ****         4.4367  -2.3169  -0.4041 C.ar           1 S1                 0.0000
     13 ****         5.1423  -1.1333  -0.6845 C.ar           1 S1                 0.0000
     14 ****         4.4123   0.0563  -0.8675 C.ar           1 S1                 0.0000
     15 ****         5.0994   1.2194  -1.1477 O.3            1 S1                 0.0000
     16 ****         4.3521   2.4112  -1.3762 C.3            1 S1                 0.0000
     17 ****         5.3254   3.5549  -1.6782 C.3            1 S1                 0.0000
     18 ****         5.9270   3.3575  -2.8509 F              1 S1                 0.0000
     19 ****         4.6711   4.7152  -1.7127 F              1 S1                 0.0000
     20 ****         3.0602   0.0990  -0.7787 N.ar           1 S1                 0.0000
     21 ****        -2.6297   1.1660   0.7783 C.3            1 S1                 0.0000
     22 ****        -3.1197   0.2870   1.9425 C.3            1 S1                 0.0000
     23 ****        -4.2060  -1.9931   3.0527 H              1 S1                 0.0000
     24 ****        -5.8267  -1.7337   2.3949 H              1 S1                 0.0000
     25 ****        -5.1393  -0.5653   3.5188 H              1 S1                 0.0000
     26 ****        -3.3434  -2.1035   0.6186 H              1 S1                 0.0000
     27 ****        -5.0032  -1.8696   0.1102 H              1 S1                 0.0000
     28 ****        -3.4135  -1.1568  -1.6857 H              1 S1                 0.0000
     29 ****        -4.4271   0.1527  -1.1435 H              1 S1                 0.0000
     30 ****        -2.2150   1.0341  -1.3333 H              1 S1                 0.0000
     31 ****        -1.3389  -1.4836  -0.2203 H              1 S1                 0.0000
     32 ****         0.5645  -1.9994  -0.2210 H              1 S1                 0.0000
     33 ****         2.4757  -3.1681  -0.1014 H              1 S1                 0.0000
     34 ****         4.9636  -3.2487  -0.2608 H              1 S1                 0.0000
     35 ****         6.2196  -1.1379  -0.7607 H              1 S1                 0.0000
     36 ****         3.6560   2.2836  -2.2072 H              1 S1                 0.0000
     37 ****         3.7710   2.6569  -0.4856 H              1 S1                 0.0000
     38 ****         6.0973   3.6399  -0.9131 H              1 S1                 0.0000
     39 ****        -1.7313   1.7099   1.0723 H              1 S1                 0.0000
     40 ****        -3.3834   1.9263   0.5686 H              1 S1                 0.0000
     41 ****        -3.3488   0.9197   2.8009 H              1 S1                 0.0000
     42 ****        -2.3319  -0.3993   2.2574 H              1 S1                 0.0000
     43 ****        -5.0250   0.1961   1.2821 H              1 S1                 0.0000
     44 ****        -0.3450   1.7967  -0.7990 LP             1 S1                 0.0000
     45 ****         1.3338   1.3708  -0.8163 LP             1 S1                 0.0000
     46 ****         5.6440   1.0502  -1.9691 LP             1 S1                 0.0000
     47 ****         5.7084   1.3963  -0.3745 LP             1 S1                 0.0000
     48 ****         2.5750   0.9630  -0.9129 LP             1 S1                 0.0000
@<TRIPOS>BOND
    1    1    2 1     
    2    1   23 1     
    3    1   24 1     
    4    1   25 1     
    5    2   22 1     
    6    2    3 1     
    7    2   43 1     
    8    3    4 1     
    9    3   26 1     
   10    3   27 1     
   11    4    5 1     
   12    4   28 1     
   13    4   29 1     
   14    5    6 1     
   15    5   21 1     
   16    5   30 1     
   17    6    7 am    
   18    6   31 1     
   19    7    8 2     
   20    7    9 am    
   21    9   10 1     
   22    9   32 1     
   23   10   20 ar    
   24   10   11 ar    
   25   11   12 ar    
   26   11   33 1     
   27   12   13 ar    
   28   12   34 1     
   29   13   14 ar    
   30   13   35 1     
   31   14   15 1     
   32   14   20 ar    
   33   15   16 1     
   34   16   17 1     
   35   16   36 1     
   36   16   37 1     
   37   17   18 1     
   38   17   19 1     
   39   17   38 1     
   40   21   22 1     
   41   21   39 1     
   42   21   40 1     
   43   22   41 1     
   44   22   42 1     
   45    8   44 1     
   46    8   45 1     
   47   15   46 1     
   48   15   47 1     
   49   20   48 1     
@<TRIPOS>SUBSTRUCTURE
      1 S1             1
@<TRIPOS>SET
LONE_PAIRS      STATIC     ATOMS    <user>   **** ""
5 44 45 46 47 48
DONOR_HYDROGENS      STATIC     ATOMS    <user>   **** ""
3 43 31 32
ATOM$BLUE        STATIC     ATOMS    COLORGROUP SYSTEM
5 44 45 46 47 48
ATOM$RED        STATIC     ATOMS    COLORGROUP SYSTEM
3 43 31 32
