AV-unprocessed.smi:1047|AV-procd|sdf|4593|dock8
  -GOLD-   22720 3 73D 1   1.00000     0.00000
 Structure written by MMmdl.
 55 57  0  0  0  0  0  0  0  0  1 V2000
  143.7487  132.1933  150.7017 C   0  0  0  0  0  0  0  0  0  0  0  0
  144.4769  133.4771  150.2791 C   0  0  0  0  0  0  0  0  0  0  0  0
  144.6826  134.4501  151.3506 N   0  0  0  0  0  0  0  0  0  0  0  0
  143.4172  134.8077  151.9815 C   0  0  0  0  0  0  0  0  0  0  0  0
  143.6080  135.8360  153.1085 C   0  0  0  0  0  0  0  0  0  0  0  0
  144.2658  136.9877  152.5913 O   0  0  0  0  0  0  0  0  0  0  0  0
  145.5386  136.6926  152.0198 C   0  0  2  0  0  0  0  0  0  0  0  0
  146.1491  138.0042  151.5058 C   0  0  0  0  0  0  0  0  0  0  0  0
  145.9827  139.0768  152.4810 N   0  0  0  0  0  0  0  0  0  0  0  0
  147.2058  139.8324  152.7310 C   0  0  0  0  0  0  0  0  0  0  0  0
  147.1524  140.5405  154.0948 C   0  0  2  0  0  0  0  0  0  0  0  0
  145.9995  141.3604  154.1305 O   0  0  0  0  0  0  0  0  0  0  0  0
  148.3976  141.4163  154.3327 C   0  0  0  0  0  0  0  0  0  0  0  0
  149.4985  140.6686  154.9139 N   0  0  0  0  0  0  0  0  0  0  0  0
  150.0349  139.5205  154.4570 C   0  0  0  0  0  0  0  0  0  0  0  0
  151.0491  139.0055  155.1461 N   0  0  0  0  0  0  0  0  0  0  0  0
  151.1865  139.9271  156.1701 C   0  0  0  0  0  0  0  0  0  0  0  0
  152.0938  139.9679  157.2513 C   0  0  0  0  0  0  0  0  0  0  0  0
  152.0512  141.0200  158.1940 C   0  0  0  0  0  0  0  0  0  0  0  0
  153.0481  141.0257  159.3398 C   0  0  0  0  0  0  0  0  0  0  0  0
  151.0877  142.0525  158.0636 C   0  0  0  0  0  0  0  0  0  0  0  0
  151.0190  143.1894  159.0679 C   0  0  0  0  0  0  0  0  0  0  0  0
  150.1759  142.0286  156.9874 C   0  0  0  0  0  0  0  0  0  0  0  0
  150.2296  140.9774  156.0554 C   0  0  0  0  0  0  0  0  0  0  0  0
  145.3400  135.6692  150.8836 C   0  0  0  0  0  0  0  0  0  0  0  0
  143.5424  131.5681  149.8329 H   0  0  0  0  0  0  0  0  0  0  0  0
  142.7950  132.4211  151.1787 H   0  0  0  0  0  0  0  0  0  0  0  0
  144.3406  131.5967  151.3952 H   0  0  0  0  0  0  0  0  0  0  0  0
  145.4335  133.2198  149.8220 H   0  0  0  0  0  0  0  0  0  0  0  0
  143.8842  133.9428  149.4904 H   0  0  0  0  0  0  0  0  0  0  0  0
  142.7338  135.2151  151.2347 H   0  0  0  0  0  0  0  0  0  0  0  0
  142.9396  133.9147  152.3864 H   0  0  0  0  0  0  0  0  0  0  0  0
  142.6431  136.1310  153.5208 H   0  0  0  0  0  0  0  0  0  0  0  0
  144.1909  135.4108  153.9271 H   0  0  0  0  0  0  0  0  0  0  0  0
  146.1906  136.2586  152.7808 H   0  0  0  0  0  0  0  0  0  0  0  0
  147.2123  137.8585  151.3114 H   0  0  0  0  0  0  0  0  0  0  0  0
  145.6910  138.2757  150.5537 H   0  0  0  0  0  0  0  0  0  0  0  0
  145.2504  139.7082  152.1704 H   0  0  0  0  0  0  0  0  0  0  0  0
  148.0523  139.1447  152.7155 H   0  0  0  0  0  0  0  0  0  0  0  0
  147.3834  140.5577  151.9355 H   0  0  0  0  0  0  0  0  0  0  0  0
  147.0828  139.8014  154.8949 H   0  0  0  0  0  0  0  0  0  0  0  0
  145.3447  140.9834  153.5632 H   0  0  0  0  0  0  0  0  0  0  0  0
  148.7407  141.8466  153.3910 H   0  0  0  0  0  0  0  0  0  0  0  0
  148.1582  142.2543  154.9890 H   0  0  0  0  0  0  0  0  0  0  0  0
  149.6623  139.0376  153.5653 H   0  0  0  0  0  0  0  0  0  0  0  0
  152.8265  139.1806  157.3506 H   0  0  0  0  0  0  0  0  0  0  0  0
  152.5295  140.9688  160.2969 H   0  0  0  0  0  0  0  0  0  0  0  0
  153.6455  141.9376  159.3220 H   0  0  0  0  0  0  0  0  0  0  0  0
  153.7310  140.1781  159.2781 H   0  0  0  0  0  0  0  0  0  0  0  0
  150.2068  143.8782  158.8336 H   0  0  0  0  0  0  0  0  0  0  0  0
  151.9503  143.7560  159.0684 H   0  0  0  0  0  0  0  0  0  0  0  0
  150.8485  142.8014  160.0725 H   0  0  0  0  0  0  0  0  0  0  0  0
  149.4391  142.8099  156.8735 H   0  0  0  0  0  0  0  0  0  0  0  0
  146.3139  135.4304  150.4572 H   0  0  0  0  0  0  0  0  0  0  0  0
  144.7516  136.1229  150.0843 H   0  0  0  0  0  0  0  0  0  0  0  0
  1  2  1  0  0  0  0
  1 26  1  0  0  0  0
  1 27  1  0  0  0  0
  1 28  1  0  0  0  0
  2  3  1  0  0  0  0
  2 29  1  0  0  0  0
  2 30  1  0  0  0  0
  3 25  1  0  0  0  0
  3  4  1  0  0  0  0
  4  5  1  0  0  0  0
  4 31  1  0  0  0  0
  4 32  1  0  0  0  0
  5  6  1  0  0  0  0
  5 33  1  0  0  0  0
  5 34  1  0  0  0  0
  6  7  1  0  0  0  0
  7  8  1  0  0  0  0
  7 25  1  0  0  0  0
  7 35  1  0  0  0  0
  8  9  1  0  0  0  0
  8 36  1  0  0  0  0
  8 37  1  0  0  0  0
  9 10  1  0  0  0  0
  9 38  1  0  0  0  0
 10 11  1  0  0  0  0
 10 39  1  0  0  0  0
 10 40  1  0  0  0  0
 11 12  1  0  0  0  0
 11 13  1  0  0  0  0
 11 41  1  0  0  0  0
 12 42  1  0  0  0  0
 13 14  1  0  0  0  0
 13 43  1  0  0  0  0
 13 44  1  0  0  0  0
 14 24  1  0  0  0  0
 14 15  1  0  0  0  0
 15 16  2  0  0  0  0
 15 45  1  0  0  0  0
 16 17  1  0  0  0  0
 17 24  2  0  0  0  0
 17 18  1  0  0  0  0
 18 19  2  0  0  0  0
 18 46  1  0  0  0  0
 19 20  1  0  0  0  0
 19 21  1  0  0  0  0
 20 47  1  0  0  0  0
 20 48  1  0  0  0  0
 20 49  1  0  0  0  0
 21 22  1  0  0  0  0
 21 23  2  0  0  0  0
 22 50  1  0  0  0  0
 22 51  1  0  0  0  0
 22 52  1  0  0  0  0
 23 24  1  0  0  0  0
 23 53  1  0  0  0  0
 25 54  1  0  0  0  0
 25 55  1  0  0  0  0
M  END
> <s_m_source_file>
AV-unprocessed.smi

> <i_m_source_file_index>
1047

> <i_lp_mmshare_version>
43012

> <i_f3d_flags>
0

> <s_epik_input>
W0NIM11bQ0gyXU4xW0NIMl1bQ0gyXU9bQ0BIXShbQ0gyXTEpW0NIMl1bTkhdW0NIMl1bQ0BIXShbT0hdKVtDSDJdbihbY0hdbjIpYyhjMjMpW2NIXWMoW0NIM10pYyhbY0hdMylbQ0gzXQ==

> <s_epik_cmdline>
J2VwaWtfcHl0aG9uJywgJy1waCcsICc3LjAnLCAnLXRuJywgJzgnLCAnLW1hJywgJzIwMCcsICctbWV0YWxfYmluZGluZycsICctaW1hZScsICc8aW5maWxlLm1hZT4nLCAnLW9tYWUnLCAnPG91dGZpbGUubWFlPic=

> <r_epik_Ionization_Penalty>
2.74124

> <r_epik_Ionization_Penalty_Charging>
0

> <r_epik_Ionization_Penalty_Neutral>
2.74124

> <r_epik_State_Penalty>
2.37482

> <r_epik_Charging_Adjusted_Penalty>
2.37482

> <i_epik_Tot_Q>
0

> <i_epik_Tot_abs_Q>
0

> <r_epik_Metal_State_Penalty>
2.25944

> <b_epik_Metal_Only>
0

> <s_lp_Force_Field>
OPLS_2005

> <r_lp_Energy>
33.9666

> <b_lp_Chiralities_Consistent>
1

> <s_lp_Variant>
AV-unprocessed.smi:1047-34

> <Gold.Version>
5.8.1

> <Gold.Id.Protein>
6NUR|6NUR_protein|mol2

> <Gold.PLP.Fitness>
55.2178

> <Gold.PLP.PLP>
-48.1143

> <Gold.PLP.part.hbond>
-2.0000

> <Gold.PLP.part.metal>
0.0000

> <Gold.PLP.part.buried>
-1.4020

> <Gold.PLP.part.nonpolar>
-45.2585

> <Gold.PLP.part.repulsive>
0.3921

> <Gold.PLP.ligand.clash>
0.0000

> <Gold.PLP.ligand.torsion>
0.9497

> <Gold.PLP.Chemscore.Hbond>
2.0000

> <Gold.PLP.Chemscore.CHOScore>
0.9666

> <Gold.PLP.Chemscore.Metal>
0.0000

> <Gold.Chemscore.Hbonds>
donor molecule, donor type, donor heavy atom, donor atom, acceptor molecule, acceptor atom, score
      L1  H     9    38       P1 10175  0.99
      L1  H    12    42       P1 10175  0.98
      L1  C    15    45       P1  7957  0.78

> <Gold.PLP.Chemscore.Internal.Correction>
0.1030

> <Gold.Rescore>
     Score         DG    S(hbond)    S(metal)    S(lipo)     H(rot)  DE(clash)    DE(int)     intcor
     18.41     -19.39       1.97        0.00     117.80       2.52       0.10       0.89       ----

> <Gold.Chemscore.Fitness>
18.4058

> <Gold.Chemscore.DG>
-19.3896

> <Gold.Chemscore.ZeroCoef>
-5.4800

> <Gold.Chemscore.Hbond>
1.9725

> <Gold.Chemscore.Metal>
0.0000

> <Gold.Chemscore.Lipo>
117.7972

> <Gold.Chemscore.Internal_Hbond>
0.0000

> <Gold.Chemscore.DEClash>
0.0960

> <Gold.Chemscore.DEInternal>
0.8879

> <Gold.Chemscore.Rot>
2.5237

> <Gold.Chemscore.Internal.Correction>
   9.000000E+99

> <Gold.Chemscore.Hbonds>
donor molecule, donor type, donor heavy atom, donor atom, acceptor molecule, acceptor atom, score
      L1  H     9    38       P1 10175  0.90
      L1  H    12    42       P1 10175  0.65

> <Gold.Chemscore.Hbond.Weighted>
-6.5880

> <Gold.Chemscore.Metal.Weighted>
-0.0000

> <Gold.Chemscore.Lipo.Weighted>
-13.7823

> <Gold.Chemscore.Internal_Hbond.Weighted>
0.0000

> <Gold.Chemscore.DEClash.Weighted>
0.0960

> <Gold.Chemscore.DEInternal.Weighted>
0.8879

> <Gold.Chemscore.Rot.Weighted>
6.4607

> <Gold.Chemscore.Internal.Correction.Weighted>
   9.000000E+99

> <Gold.Protein.RotatedTorsions>
[ 6907 6896 6895 6894 ] final   70.48 input  -60.11 | X-H torsion
[ 7974 7965 7964 7962 ] final  119.19 input  175.53 | X-H torsion
[ 8008 7997 7996 7995 ] final  -45.58 input   59.86 | X-H torsion
[ 10167 10162 10161 10158 ] final   44.85 input  -65.29 | X-H torsion
[ 10718 10713 10712 10709 ] final -105.42 input   66.30 | X-H torsion
[ 10763 10752 10751 10750 ] final   52.76 input  -60.55 | X-H torsion
[ 11005 11000 10999 10996 ] final  -24.98 input  -57.11 | X-H torsion

> <Gold.Protein.ActiveResidues>
 VAL166  LYS551  ARG553  GLY616  TRP617  ASP618  TYR619  PRO620  LYS621  CYS622 
 ASP623  PHE694  ASN695  SER759  ASP760  ASP761  ALA762  ILE779  LEU786  VAL792 
 PHE793  MET794  SER795  GLU796  ALA797  LYS798  CYS799  TRP800  GLU811  SER814 

> <Gold.Protein.RotatedAtoms>
  152.4752  134.4862  159.9680 H   0  0  0  0  0  0  0  0  0  0  0  0  # atno 6907 bound_to 6896
  151.4879  133.3525  159.2856 H   0  0  0  0  0  0  0  0  0  0  0  0  # atno 6908 bound_to 6896
  150.8786  134.8200  159.7269 H   0  0  0  0  0  0  0  0  0  0  0  0  # atno 6909 bound_to 6896
  145.1462  139.3238  143.4590 H   0  0  0  0  0  0  0  0  0  0  0  0  # atno 7974 bound_to 7965
  154.4002  140.1393  156.3870 H   0  0  0  0  0  0  0  0  0  0  0  0  # atno 8008 bound_to 7997
  155.7950  140.3477  155.5350 H   0  0  0  0  0  0  0  0  0  0  0  0  # atno 8009 bound_to 7997
  155.8541  140.0946  157.1646 H   0  0  0  0  0  0  0  0  0  0  0  0  # atno 8010 bound_to 7997
  140.3301  144.2599  150.6169 H   0  0  0  0  0  0  0  0  0  0  0  0  # atno 10167 bound_to 10162
  156.0345  130.5563  150.7537 H   0  0  0  0  0  0  0  0  0  0  0  0  # atno 10718 bound_to 10713
  152.9791  135.5801  154.4631 H   0  0  0  0  0  0  0  0  0  0  0  0  # atno 10763 bound_to 10752
  154.4205  135.2771  155.1981 H   0  0  0  0  0  0  0  0  0  0  0  0  # atno 10764 bound_to 10752
  154.3732  135.6163  153.5805 H   0  0  0  0  0  0  0  0  0  0  0  0  # atno 10765 bound_to 10752
  140.8895  133.7598  156.0403 H   0  0  0  0  0  0  0  0  0  0  0  0  # atno 11005 bound_to 11000
  146.3500  140.1518  142.8592 LP  0  0  0  0  0  0  0  0  0  0  0  0  # atno 17320 bound_to 7965
  145.0480  140.8996  143.5013 LP  0  0  0  0  0  0  0  0  0  0  0  0  # atno 17321 bound_to 7965
  140.5405  143.2224  151.8092 LP  0  0  0  0  0  0  0  0  0  0  0  0  # atno 17342 bound_to 10162
  139.4858  144.4606  151.9545 LP  0  0  0  0  0  0  0  0  0  0  0  0  # atno 17343 bound_to 10162
  157.5074  131.0923  151.0240 LP  0  0  0  0  0  0  0  0  0  0  0  0  # atno 17370 bound_to 10713
  157.0604  130.5823  149.5385 LP  0  0  0  0  0  0  0  0  0  0  0  0  # atno 17371 bound_to 10713
  140.8363  134.3119  157.5330 LP  0  0  0  0  0  0  0  0  0  0  0  0  # atno 17394 bound_to 11000
  139.8728  134.9391  156.3734 LP  0  0  0  0  0  0  0  0  0  0  0  0  # atno 17395 bound_to 11000

$$$$
