AV-unprocessed.smi:2999|AV-procd|sdf|11424|dock7
  -GOLD-   2272016343D 1   1.00000     0.00000
 Structure written by MMmdl.
 36 38  0  0  0  0  0  0  0  0  2 V2000
  154.0799  137.4681  155.5913 O   0  0  0  0  0  0  0  0  0  0  0  0
  153.9465  138.3541  154.7438 C   0  0  0  0  0  0  0  0  0  0  0  0
  152.7226  138.8065  154.4409 N   0  0  0  0  0  0  0  0  0  0  0  0
  151.4829  138.3329  155.0426 C   0  0  0  0  0  0  0  0  0  0  0  0
  150.7230  139.4866  155.7120 C   0  0  1  0  0  0  0  0  0  0  0  0
  151.5317  140.1107  156.8665 C   0  0  0  0  0  0  0  0  0  0  0  0
  150.8396  141.2451  157.4660 N   0  0  0  0  0  0  0  0  0  0  0  0
  151.6285  141.8284  158.5409 C   0  0  0  0  0  0  0  0  0  0  0  0
  151.1631  143.1049  159.1928 C   0  0  0  0  0  0  0  0  0  0  0  0
  152.3855  143.1075  158.2931 C   0  0  0  0  0  0  0  0  0  0  0  0
  150.5634  142.2278  156.4256 C   0  0  0  0  0  0  0  0  0  0  0  0
  149.7614  141.6165  155.2643 C   0  0  0  0  0  0  0  0  0  0  0  0
  150.4680  140.4976  154.7380 O   0  0  0  0  0  0  0  0  0  0  0  0
  154.9391  138.9531  154.0470 N   0  5  0  0  0  0  0  0  0  0  0  0
  156.0319  138.2531  153.7009 C   0  0  0  0  0  0  0  0  0  0  0  0
  156.3132  137.0441  154.2008 N   0  0  0  0  0  0  0  0  0  0  0  0
  157.4997  136.5007  153.7047 C   0  0  0  0  0  0  0  0  0  0  0  0
  158.1425  137.3198  152.8145 C   0  0  0  0  0  0  0  0  0  0  0  0
  157.2704  138.8064  152.5702 S   0  0  0  0  0  0  0  0  0  0  0  0
  152.6488  139.5349  153.7458 H   0  0  0  0  0  0  0  0  0  0  0  0
  150.8599  137.8852  154.2666 H   0  0  0  0  0  0  0  0  0  0  0  0
  151.7055  137.5503  155.7694 H   0  0  0  0  0  0  0  0  0  0  0  0
  149.7728  139.1125  156.0986 H   0  0  0  0  0  0  0  0  0  0  0  0
  151.7183  139.3527  157.6280 H   0  0  0  0  0  0  0  0  0  0  0  0
  152.5087  140.4262  156.4961 H   0  0  0  0  0  0  0  0  0  0  0  0
  152.0920  141.0723  159.1729 H   0  0  0  0  0  0  0  0  0  0  0  0
  150.2575  143.5716  158.8101 H   0  0  0  0  0  0  0  0  0  0  0  0
  151.3263  143.2093  160.2635 H   0  0  0  0  0  0  0  0  0  0  0  0
  153.3588  143.2151  158.7675 H   0  0  0  0  0  0  0  0  0  0  0  0
  152.2871  143.5769  157.3159 H   0  0  0  0  0  0  0  0  0  0  0  0
  150.0097  143.0672  156.8478 H   0  0  0  0  0  0  0  0  0  0  0  0
  151.4999  142.6345  156.0402 H   0  0  0  0  0  0  0  0  0  0  0  0
  148.7706  141.3055  155.5987 H   0  0  0  0  0  0  0  0  0  0  0  0
  149.6171  142.3522  154.4731 H   0  0  0  0  0  0  0  0  0  0  0  0
  157.8119  135.5234  154.0418 H   0  0  0  0  0  0  0  0  0  0  0  0
  159.0696  137.1416  152.2908 H   0  0  0  0  0  0  0  0  0  0  0  0
  1  2  2  0  0  0  0
  2  3  1  0  0  0  0
  2 14  1  0  0  0  0
  3  4  1  0  0  0  0
  3 20  1  0  0  0  0
  4  5  1  0  0  0  0
  4 21  1  0  0  0  0
  4 22  1  0  0  0  0
  5 13  1  0  0  0  0
  5  6  1  0  0  0  0
  5 23  1  0  0  0  0
  6  7  1  0  0  0  0
  6 24  1  0  0  0  0
  6 25  1  0  0  0  0
  7  8  1  0  0  0  0
  7 11  1  0  0  0  0
  8 10  1  0  0  0  0
  8  9  1  0  0  0  0
  8 26  1  0  0  0  0
  9 10  1  0  0  0  0
  9 27  1  0  0  0  0
  9 28  1  0  0  0  0
 10 29  1  0  0  0  0
 10 30  1  0  0  0  0
 11 12  1  0  0  0  0
 11 31  1  0  0  0  0
 11 32  1  0  0  0  0
 12 13  1  0  0  0  0
 12 33  1  0  0  0  0
 12 34  1  0  0  0  0
 14 15  1  0  0  0  0
 15 19  1  0  0  0  0
 15 16  2  0  0  0  0
 16 17  1  0  0  0  0
 17 18  2  0  0  0  0
 17 35  1  0  0  0  0
 18 19  1  0  0  0  0
 18 36  1  0  0  0  0
M  CHG  1  14  -1
M  END
> <s_m_source_file>
AV-unprocessed.smi

> <i_m_source_file_index>
2999

> <i_lp_mmshare_version>
43012

> <i_f3d_flags>
0

> <s_epik_input>
czFbY0hdW2NIXW5jMVtOSF1DKD1PKVtOSF1bQ0gyXVtDQEBIXTJbQ0gyXU4oW0NIMl1bQ0gyXU8yKVtDSF0zW0NIMl1bQ0gyXTM=

> <s_epik_cmdline>
J2VwaWtfcHl0aG9uJywgJy1waCcsICc3LjAnLCAnLXRuJywgJzgnLCAnLW1hJywgJzIwMCcsICctbWV0YWxfYmluZGluZycsICctaW1hZScsICc8aW5maWxlLm1hZT4nLCAnLW9tYWUnLCAnPG91dGZpbGUubWFlPic=

> <r_lp_tautomer_probability>
0.999

> <r_epik_Ionization_Penalty>
6.67591

> <r_epik_Ionization_Penalty_Charging>
5.6519

> <r_epik_Ionization_Penalty_Neutral>
1.024

> <r_epik_State_Penalty>
5.68985

> <r_epik_Charging_Adjusted_Penalty>
11.3418

> <i_epik_Tot_Q>
-1

> <i_epik_Tot_abs_Q>
1

> <r_epik_Metal_State_Penalty>
1.67789

> <b_epik_Metal_Only>
1

> <s_lp_Force_Field>
OPLS_2005

> <r_lp_Energy>
26.9989

> <b_lp_Chiralities_Consistent>
1

> <s_lp_Variant>
AV-unprocessed.smi:2999-8

> <Gold.Version>
5.8.1

> <Gold.Id.Protein>
6NUR|6NUR_protein|mol2

> <Gold.PLP.Fitness>
41.2273

> <Gold.PLP.PLP>
-31.0920

> <Gold.PLP.part.hbond>
-4.0000

> <Gold.PLP.part.metal>
0.0000

> <Gold.PLP.part.buried>
-0.2302

> <Gold.PLP.part.nonpolar>
-27.3106

> <Gold.PLP.part.repulsive>
0.3546

> <Gold.PLP.ligand.clash>
0.0000

> <Gold.PLP.ligand.torsion>
0.8881

> <Gold.PLP.Chemscore.Hbond>
3.5978

> <Gold.PLP.Chemscore.CHOScore>
0.0000

> <Gold.PLP.Chemscore.Metal>
0.0000

> <Gold.Chemscore.Hbonds>
donor molecule, donor type, donor heavy atom, donor atom, acceptor molecule, acceptor atom, score
      P1  H  7989  7998       L1    13  1.00
      P1  H  7997  8009       L1    14  1.32
      P1  H 10752 10763       L1     1  0.06
      P1  H 10752 10764       L1    16  0.75

> <Gold.PLP.Chemscore.Internal.Correction>
1.1182

> <Gold.Rescore>
     Score         DG    S(hbond)    S(metal)    S(lipo)     H(rot)  DE(clash)    DE(int)     intcor
     14.58     -17.80       1.44        0.00      97.39       1.52       0.78       2.45       ----

> <Gold.Chemscore.Fitness>
14.5769

> <Gold.Chemscore.DG>
-17.8045

> <Gold.Chemscore.ZeroCoef>
-5.4800

> <Gold.Chemscore.Hbond>
1.4408

> <Gold.Chemscore.Metal>
0.0000

> <Gold.Chemscore.Lipo>
97.3919

> <Gold.Chemscore.Internal_Hbond>
0.0000

> <Gold.Chemscore.DEClash>
0.7765

> <Gold.Chemscore.DEInternal>
2.4512

> <Gold.Chemscore.Rot>
1.5167

> <Gold.Chemscore.Internal.Correction>
   9.000000E+99

> <Gold.Chemscore.Hbonds>
donor molecule, donor type, donor heavy atom, donor atom, acceptor molecule, acceptor atom, score
      P1  H  7989  7998       L1    13  0.85
      P1  H  7997  8009       L1    14  0.07
      P1  H 10752 10763       L1     1  0.08
      P1  H 10752 10764       L1    16  0.39

> <Gold.Chemscore.Hbond.Weighted>
-4.8124

> <Gold.Chemscore.Metal.Weighted>
-0.0000

> <Gold.Chemscore.Lipo.Weighted>
-11.3948

> <Gold.Chemscore.Internal_Hbond.Weighted>
0.0000

> <Gold.Chemscore.DEClash.Weighted>
0.7765

> <Gold.Chemscore.DEInternal.Weighted>
2.4512

> <Gold.Chemscore.Rot.Weighted>
3.8827

> <Gold.Chemscore.Internal.Correction.Weighted>
   9.000000E+99

> <Gold.Protein.RotatedTorsions>
[ 6907 6896 6895 6894 ] final   28.32 input  -60.11 | X-H torsion
[ 7974 7965 7964 7962 ] final   38.61 input  175.53 | X-H torsion
[ 8008 7997 7996 7995 ] final  -75.55 input   59.86 | X-H torsion
[ 10167 10162 10161 10158 ] final  -78.99 input  -65.29 | X-H torsion
[ 10718 10713 10712 10709 ] final   50.65 input   66.30 | X-H torsion
[ 10763 10752 10751 10750 ] final  119.70 input  -60.55 | X-H torsion
[ 11005 11000 10999 10996 ] final  142.77 input  -57.11 | X-H torsion

> <Gold.Protein.ActiveResidues>
 VAL166  LYS551  ARG553  GLY616  TRP617  ASP618  TYR619  PRO620  LYS621  CYS622 
 ASP623  PHE694  ASN695  SER759  ASP760  ASP761  ALA762  ILE779  LEU786  VAL792 
 PHE793  MET794  SER795  GLU796  ALA797  LYS798  CYS799  TRP800  GLU811  SER814 

> <Gold.Protein.RotatedAtoms>
  152.0152  134.9854  160.0568 H   0  0  0  0  0  0  0  0  0  0  0  0  # atno 6907 bound_to 6896
  152.1390  133.4448  159.4766 H   0  0  0  0  0  0  0  0  0  0  0  0  # atno 6908 bound_to 6896
  150.6863  134.2246  159.4453 H   0  0  0  0  0  0  0  0  0  0  0  0  # atno 6909 bound_to 6896
  146.1049  139.5752  142.9390 H   0  0  0  0  0  0  0  0  0  0  0  0  # atno 7974 bound_to 7965
  154.5427  140.0742  156.8537 H   0  0  0  0  0  0  0  0  0  0  0  0  # atno 8008 bound_to 7997
  155.3149  140.3392  155.4224 H   0  0  0  0  0  0  0  0  0  0  0  0  # atno 8009 bound_to 7997
  156.1889  140.1679  156.8117 H   0  0  0  0  0  0  0  0  0  0  0  0  # atno 8010 bound_to 7997
  140.4633  143.2447  151.8316 H   0  0  0  0  0  0  0  0  0  0  0  0  # atno 10167 bound_to 10162
  157.4905  130.8373  149.8197 H   0  0  0  0  0  0  0  0  0  0  0  0  # atno 10718 bound_to 10713
  153.5870  135.3473  155.2896 H   0  0  0  0  0  0  0  0  0  0  0  0  # atno 10763 bound_to 10752
  154.8659  135.4195  154.2558 H   0  0  0  0  0  0  0  0  0  0  0  0  # atno 10764 bound_to 10752
  153.3357  135.7047  153.6981 H   0  0  0  0  0  0  0  0  0  0  0  0  # atno 10765 bound_to 10752
  140.0502  134.9259  157.1004 H   0  0  0  0  0  0  0  0  0  0  0  0  # atno 11005 bound_to 11000
  145.5781  141.0386  143.2137 LP  0  0  0  0  0  0  0  0  0  0  0  0  # atno 17320 bound_to 7965
  144.7462  139.7313  143.7291 LP  0  0  0  0  0  0  0  0  0  0  0  0  # atno 17321 bound_to 7965
  139.4809  144.4981  151.9097 LP  0  0  0  0  0  0  0  0  0  0  0  0  # atno 17342 bound_to 10162
  140.4067  144.2423  150.5890 LP  0  0  0  0  0  0  0  0  0  0  0  0  # atno 17343 bound_to 10162
  156.0171  130.3809  150.2077 LP  0  0  0  0  0  0  0  0  0  0  0  0  # atno 17370 bound_to 10713
  157.0266  130.9995  151.3324 LP  0  0  0  0  0  0  0  0  0  0  0  0  # atno 17371 bound_to 10713
  140.3929  134.2165  155.7165 LP  0  0  0  0  0  0  0  0  0  0  0  0  # atno 17394 bound_to 11000
  141.1927  133.8168  157.0830 LP  0  0  0  0  0  0  0  0  0  0  0  0  # atno 17395 bound_to 11000

$$$$
