#       Name:                AV-unprocessed.smi:48
#       Creating user name   scv26
#       Creation time:       Thu Mar 26 16:33:11 2020


#       File generated by GOLD software.
#

@<TRIPOS>MOLECULE
AV-unprocessed.smi:48
    41    43     1
SMALL
NO_CHARGES


@<TRIPOS>ATOM
      1 ****        -3.3521   1.6222  -2.1021 O.3            1 S1                 0.0000
      2 ****        -3.1392   0.2410  -1.9018 C.3            1 S1                 0.0000
      3 ****        -1.7344   0.0047  -1.3202 C.3            1 S1                 0.0000
      4 ****        -1.7225   0.1706   0.0941 O.3            1 S1                 0.0000
      5 ****        -0.5688  -0.4132   0.6221 C.3            1 S1                 0.0000
      6 ****         0.4662   0.6563   0.7907 N.pl3          1 S1                 0.0000
      7 ****         0.4162   1.9630   0.4515 C.2            1 S1                 0.0000
      8 ****         1.4849   2.7097   0.7295 N.2            1 S1                 0.0000
      9 ****         2.3209   1.7836   1.3312 C.ar           1 S1                 0.0000
     10 ****         3.6223   1.8760   1.8820 C.ar           1 S1                 0.0000
     11 ****         4.4844   3.3708   1.8814 Cl             1 S1                 0.0000
     12 ****         4.1782   0.7602   2.4125 N.ar           1 S1                 0.0000
     13 ****         3.4870  -0.3866   2.4018 C.ar           1 S1                 0.0000
     14 ****         2.2613  -0.6255   1.9203 N.ar           1 S1                 0.0000
     15 ****         1.7054   0.5017   1.3854 C.ar           1 S1                 0.0000
     16 ****        -0.0854  -1.4538  -0.4060 C.3            1 S1                 0.0000
     17 ****         0.0998  -2.7431   0.1467 O.3            1 S1                 0.0000
     18 ****        -1.1815  -1.4172  -1.4711 C.3            1 S1                 0.0000
     19 ****        -2.2020  -2.3745  -1.2379 O.3            1 S1                 0.0000
     20 ****        -1.0220   0.6983  -1.7712 H              1 S1                 0.0000
     21 ****        -0.7400  -0.7997   1.6277 H              1 S1                 0.0000
     22 ****         0.8554  -1.1210  -0.8478 H              1 S1                 0.0000
     23 ****        -0.7763  -1.5897  -2.4687 H              1 S1                 0.0000
     24 ****        -4.2183   1.7429  -2.4603 H              1 S1                 0.0000
     25 ****        -3.9142  -0.1707  -1.2544 H              1 S1                 0.0000
     26 ****        -3.2310  -0.2475  -2.8723 H              1 S1                 0.0000
     27 ****        -0.4498   2.3955  -0.0283 H              1 S1                 0.0000
     28 ****         3.9875  -1.2360   2.8431 H              1 S1                 0.0000
     29 ****         0.7698  -2.6892   0.8116 H              1 S1                 0.0000
     30 ****        -1.8006  -3.2292  -1.1898 H              1 S1                 0.0000
     31 ****        -2.6703   1.9797  -2.7403 LP             1 S1                 0.0000
     32 ****        -3.2775   2.1051  -1.2296 LP             1 S1                 0.0000
     33 ****        -2.5292  -0.2699   0.4881 LP             1 S1                 0.0000
     34 ****        -1.7338   1.1458   0.3154 LP             1 S1                 0.0000
     35 ****         1.6415   3.6811   0.5510 LP             1 S1                 0.0000
     36 ****         5.0959   0.7927   2.8083 LP             1 S1                 0.0000
     37 ****         1.8093  -1.5171   1.9486 LP             1 S1                 0.0000
     38 ****         0.3852  -3.3798  -0.5696 LP             1 S1                 0.0000
     39 ****        -0.7559  -3.0619   0.5545 LP             1 S1                 0.0000
     40 ****        -2.8637  -2.3531  -1.9874 LP             1 S1                 0.0000
     41 ****        -2.6673  -2.1702  -0.3766 LP             1 S1                 0.0000
@<TRIPOS>BOND
    1    1    2 1     
    2    1   24 1     
    3    2    3 1     
    4    2   25 1     
    5    2   26 1     
    6    3   20 1     
    7    3   18 1     
    8    3    4 1     
    9    4    5 1     
   10    5   21 1     
   11    5    6 1     
   12    5   16 1     
   13    6   15 1     
   14    6    7 1     
   15    7    8 2     
   16    7   27 1     
   17    8    9 1     
   18    9   15 ar    
   19    9   10 ar    
   20   10   11 1     
   21   10   12 ar    
   22   12   13 ar    
   23   13   14 ar    
   24   13   28 1     
   25   14   15 ar    
   26   16   22 1     
   27   16   17 1     
   28   16   18 1     
   29   17   29 1     
   30   18   23 1     
   31   18   19 1     
   32   19   30 1     
   33    1   31 1     
   34    1   32 1     
   35    4   33 1     
   36    4   34 1     
   37    8   35 1     
   38   12   36 1     
   39   14   37 1     
   40   17   38 1     
   41   17   39 1     
   42   19   40 1     
   43   19   41 1     
@<TRIPOS>SUBSTRUCTURE
      1 S1             1
@<TRIPOS>SET
LONE_PAIRS      STATIC     ATOMS    <user>   **** ""
11 31 32 33 34 35 36 37 38 39 40 41
DONOR_HYDROGENS      STATIC     ATOMS    <user>   **** ""
3 24 29 30
ATOM$BLUE        STATIC     ATOMS    COLORGROUP SYSTEM
11 31 32 33 34 35 36 37 38 39 40 41
ATOM$RED        STATIC     ATOMS    COLORGROUP SYSTEM
3 24 29 30
