AV-unprocessed.smi:89|AV-procd|sdf|827|dock1
  -GOLD-   2262017243D 1   1.00000     0.00000
 Structure written by MMmdl.
 54 56  0  0  0  0  0  0  0  0  1 V2000
  149.1797  137.3334  158.8835 C   0  0  0  0  0  0  0  0  0  0  0  0
  149.0860  136.0611  158.0251 C   0  0  0  0  0  0  0  0  0  0  0  0
  149.6634  136.2139  156.6881 N   0  0  0  0  0  0  0  0  0  0  0  0
  149.5216  135.1437  155.8674 C   0  0  0  0  0  0  0  0  0  0  0  0
  150.4652  134.1724  155.9475 N   0  0  0  0  0  0  0  0  0  0  0  0
  150.3908  133.0967  155.1594 C   0  0  0  0  0  0  0  0  0  0  0  0
  149.4773  132.8040  154.2319 N   0  0  0  0  0  0  0  0  0  0  0  0
  148.5351  133.7854  154.1360 C   0  0  0  0  0  0  0  0  0  0  0  0
  148.4793  134.9787  154.9106 C   0  0  0  0  0  0  0  0  0  0  0  0
  147.3725  135.7316  154.5371 N   0  0  0  0  0  0  0  0  0  0  0  0
  146.8074  135.0250  153.5973 C   0  0  0  0  0  0  0  0  0  0  0  0
  147.4492  133.8490  153.2799 N   0  0  0  0  0  0  0  0  0  0  0  0
  147.0481  132.8844  152.2670 C   0  0  0  0  0  0  0  0  0  0  0  0
  145.8215  132.0138  152.6503 C   0  0  1  0  0  0  0  0  0  0  0  0
  144.7598  132.8930  152.9669 O   0  0  0  0  0  0  0  0  0  0  0  0
  145.3714  131.0411  151.5621 C   0  0  0  0  0  0  0  0  0  0  0  0
  146.0212  129.7047  151.9403 C   0  0  0  0  0  0  0  0  0  0  0  0
  146.6229  129.8965  153.2156 O   0  0  0  0  0  0  0  0  0  0  0  0
  146.0682  131.0552  153.8188 C   0  0  0  0  0  0  0  0  0  0  0  0
  150.9255  136.9652  156.5885 C   0  0  1  0  0  0  0  0  0  0  0  0
  152.1385  136.1568  157.0868 C   0  0  0  0  0  0  0  0  0  0  0  0
  151.2045  137.5538  155.1845 C   0  0  0  0  0  0  0  0  0  0  0  0
  151.5818  139.3692  155.2068 S   0  0  0  0  0  0  0  0  0  0  0  0
  153.0339  139.5342  155.0431 O   0  0  0  0  0  0  0  0  0  0  0  0
  150.6566  140.0729  154.3050 O   0  0  0  0  0  0  0  0  0  0  0  0
  151.1603  139.8392  156.9429 C   0  0  0  0  0  0  0  0  0  0  0  0
  151.4320  141.3206  157.2282 C   0  0  0  0  0  0  0  0  0  0  0  0
  148.8147  137.1424  159.8924 H   0  0  0  0  0  0  0  0  0  0  0  0
  148.5841  138.1485  158.4714 H   0  0  0  0  0  0  0  0  0  0  0  0
  150.2117  137.6764  158.9637 H   0  0  0  0  0  0  0  0  0  0  0  0
  149.6159  135.2578  158.5376 H   0  0  0  0  0  0  0  0  0  0  0  0
  148.0474  135.7400  157.9528 H   0  0  0  0  0  0  0  0  0  0  0  0
  151.1772  132.3680  155.2898 H   0  0  0  0  0  0  0  0  0  0  0  0
  145.9060  135.3503  153.0988 H   0  0  0  0  0  0  0  0  0  0  0  0
  146.8481  133.4274  151.3422 H   0  0  0  0  0  0  0  0  0  0  0  0
  147.9062  132.2431  152.0601 H   0  0  0  0  0  0  0  0  0  0  0  0
  144.1851  132.4602  153.5797 H   0  0  0  0  0  0  0  0  0  0  0  0
  144.2873  130.9166  151.5831 H   0  0  0  0  0  0  0  0  0  0  0  0
  145.6336  131.3718  150.5572 H   0  0  0  0  0  0  0  0  0  0  0  0
  145.2766  128.9100  151.9943 H   0  0  0  0  0  0  0  0  0  0  0  0
  146.7824  129.4051  151.2197 H   0  0  0  0  0  0  0  0  0  0  0  0
  146.7164  131.4697  154.5906 H   0  0  0  0  0  0  0  0  0  0  0  0
  145.1273  130.7701  154.2936 H   0  0  0  0  0  0  0  0  0  0  0  0
  150.8213  137.8096  157.2694 H   0  0  0  0  0  0  0  0  0  0  0  0
  153.0333  136.7789  157.1156 H   0  0  0  0  0  0  0  0  0  0  0  0
  152.3529  135.3109  156.4336 H   0  0  0  0  0  0  0  0  0  0  0  0
  151.9824  135.7731  158.0949 H   0  0  0  0  0  0  0  0  0  0  0  0
  152.0588  137.0563  154.7265 H   0  0  0  0  0  0  0  0  0  0  0  0
  150.3686  137.3849  154.5062 H   0  0  0  0  0  0  0  0  0  0  0  0
  150.1139  139.5932  157.1231 H   0  0  0  0  0  0  0  0  0  0  0  0
  151.7594  139.2151  157.6062 H   0  0  0  0  0  0  0  0  0  0  0  0
  151.2416  141.5509  158.2764 H   0  0  0  0  0  0  0  0  0  0  0  0
  150.7891  141.9663  156.6312 H   0  0  0  0  0  0  0  0  0  0  0  0
  152.4689  141.5813  157.0147 H   0  0  0  0  0  0  0  0  0  0  0  0
  1  2  1  0  0  0  0
  1 28  1  0  0  0  0
  1 29  1  0  0  0  0
  1 30  1  0  0  0  0
  2  3  1  0  0  0  0
  2 31  1  0  0  0  0
  2 32  1  0  0  0  0
  3  4  1  0  0  0  0
  3 20  1  0  0  0  0
  4  9  1  0  0  0  0
  4  5  2  0  0  0  0
  5  6  1  0  0  0  0
  6  7  2  0  0  0  0
  6 33  1  0  0  0  0
  7  8  1  0  0  0  0
  8 12  1  0  0  0  0
  8  9  2  0  0  0  0
  9 10  1  0  0  0  0
 10 11  2  0  0  0  0
 11 12  1  0  0  0  0
 11 34  1  0  0  0  0
 12 13  1  0  0  0  0
 13 14  1  0  0  0  0
 13 35  1  0  0  0  0
 13 36  1  0  0  0  0
 14 19  1  0  0  0  0
 14 15  1  0  0  0  0
 14 16  1  0  0  0  0
 15 37  1  0  0  0  0
 16 17  1  0  0  0  0
 16 38  1  0  0  0  0
 16 39  1  0  0  0  0
 17 18  1  0  0  0  0
 17 40  1  0  0  0  0
 17 41  1  0  0  0  0
 18 19  1  0  0  0  0
 19 42  1  0  0  0  0
 19 43  1  0  0  0  0
 20 21  1  0  0  0  0
 20 22  1  0  0  0  0
 20 44  1  0  0  0  0
 21 45  1  0  0  0  0
 21 46  1  0  0  0  0
 21 47  1  0  0  0  0
 22 23  1  0  0  0  0
 22 48  1  0  0  0  0
 22 49  1  0  0  0  0
 23 24  2  0  0  0  0
 23 25  2  0  0  0  0
 23 26  1  0  0  0  0
 26 27  1  0  0  0  0
 26 50  1  0  0  0  0
 26 51  1  0  0  0  0
 27 52  1  0  0  0  0
 27 53  1  0  0  0  0
 27 54  1  0  0  0  0
M  END
> <s_m_source_file>
AV-unprocessed.smi

> <i_m_source_file_index>
89

> <i_lp_mmshare_version>
43012

> <i_f3d_flags>
0

> <s_epik_input>
W0NIM11bQ0gyXVMoPU8pKD1PKVtDSDJdW0NAQEhdKFtDSDNdKU4oW0NIMl1bQ0gzXSljKG5bY0hdbjEpYyhjMTIpbltjSF1uMltDSDJdW0NAQF0zKFtPSF0pW0NIMl1bQ0gyXU9bQ0gyXTM=

> <s_epik_cmdline>
J2VwaWtfcHl0aG9uJywgJy1waCcsICc3LjAnLCAnLXRuJywgJzgnLCAnLW1hJywgJzIwMCcsICctbWV0YWxfYmluZGluZycsICctaW1hZScsICc8aW5maWxlLm1hZT4nLCAnLW9tYWUnLCAnPG91dGZpbGUubWFlPic=

> <r_lp_tautomer_probability>
1

> <r_epik_Ionization_Penalty>
0.00103773

> <r_epik_Ionization_Penalty_Charging>
0

> <r_epik_Ionization_Penalty_Neutral>
0.00103773

> <r_epik_State_Penalty>
0.000558914

> <r_epik_Charging_Adjusted_Penalty>
0.000558914

> <i_epik_Tot_Q>
0

> <i_epik_Tot_abs_Q>
0

> <r_epik_Metal_State_Penalty>
-0

> <b_epik_Metal_Only>
0

> <s_lp_Force_Field>
OPLS_2005

> <r_lp_Energy>
30.4714

> <b_lp_Chiralities_Consistent>
1

> <s_lp_Variant>
AV-unprocessed.smi:89-3

> <Gold.Version>
5.8.1

> <Gold.Id.Protein>
6NUR|6NUR_protein|mol2

> <Gold.PLP.Fitness>
41.5059

> <Gold.PLP.PLP>
-34.3157

> <Gold.PLP.part.hbond>
-3.7801

> <Gold.PLP.part.metal>
0.0000

> <Gold.PLP.part.buried>
-4.2384

> <Gold.PLP.part.nonpolar>
-26.4293

> <Gold.PLP.part.repulsive>
0.4635

> <Gold.PLP.ligand.clash>
0.0000

> <Gold.PLP.ligand.torsion>
1.7084

> <Gold.PLP.Chemscore.Hbond>
3.0000

> <Gold.PLP.Chemscore.CHOScore>
0.0000

> <Gold.PLP.Chemscore.Metal>
0.0000

> <Gold.Chemscore.Hbonds>
donor molecule, donor type, donor heavy atom, donor atom, acceptor molecule, acceptor atom, score
      L1  H    15    37       P1 10957  0.96
      P1  H  7989  7998       L1    25  0.91
      P1  H  7997  8009       L1    24  1.00

> <Gold.PLP.Chemscore.Internal.Correction>
1.6069

> <Gold.Rescore>
     Score         DG    S(hbond)    S(metal)    S(lipo)     H(rot)  DE(clash)    DE(int)     intcor
      9.02     -13.21       2.78        0.00      62.31       3.45       0.03       4.16       ----

> <Gold.Chemscore.Fitness>
9.0186

> <Gold.Chemscore.DG>
-13.2093

> <Gold.Chemscore.ZeroCoef>
-5.4800

> <Gold.Chemscore.Hbond>
2.7777

> <Gold.Chemscore.Metal>
0.0000

> <Gold.Chemscore.Lipo>
62.3090

> <Gold.Chemscore.Internal_Hbond>
0.0000

> <Gold.Chemscore.DEClash>
0.0312

> <Gold.Chemscore.DEInternal>
4.1595

> <Gold.Chemscore.Rot>
3.4524

> <Gold.Chemscore.Internal.Correction>
   9.000000E+99

> <Gold.Chemscore.Hbonds>
donor molecule, donor type, donor heavy atom, donor atom, acceptor molecule, acceptor atom, score
      L1  H    15    37       P1 10957  0.23
      P1  H  7989  7998       L1    25  0.26
      P1  H  7997  8009       L1    24  1.00

> <Gold.Chemscore.Hbond.Weighted>
-9.2774

> <Gold.Chemscore.Metal.Weighted>
-0.0000

> <Gold.Chemscore.Lipo.Weighted>
-7.2902

> <Gold.Chemscore.Internal_Hbond.Weighted>
0.0000

> <Gold.Chemscore.DEClash.Weighted>
0.0312

> <Gold.Chemscore.DEInternal.Weighted>
4.1595

> <Gold.Chemscore.Rot.Weighted>
8.8382

> <Gold.Chemscore.Internal.Correction.Weighted>
   9.000000E+99

> <Gold.Protein.RotatedTorsions>
[ 6907 6896 6895 6894 ] final  -51.62 input  -60.11 | X-H torsion
[ 7974 7965 7964 7962 ] final  153.58 input  175.53 | X-H torsion
[ 8008 7997 7996 7995 ] final -140.89 input   59.86 | X-H torsion
[ 10167 10162 10161 10158 ] final  107.47 input  -65.29 | X-H torsion
[ 10718 10713 10712 10709 ] final  -61.18 input   66.30 | X-H torsion
[ 10763 10752 10751 10750 ] final    8.69 input  -60.55 | X-H torsion
[ 11005 11000 10999 10996 ] final -143.35 input  -57.11 | X-H torsion

> <Gold.Protein.ActiveResidues>
 VAL166  LYS551  ARG553  GLY616  TRP617  ASP618  TYR619  PRO620  LYS621  CYS622 
 ASP623  PHE694  ASN695  SER759  ASP760  ASP761  ALA762  ILE779  LEU786  VAL792 
 PHE793  MET794  SER795  GLU796  ALA797  LYS798  CYS799  TRP800  GLU811  SER814 

> <Gold.Protein.RotatedAtoms>
  150.8594  134.7942  159.7071 H   0  0  0  0  0  0  0  0  0  0  0  0  # atno 6907 bound_to 6896
  152.4636  134.5124  159.9767 H   0  0  0  0  0  0  0  0  0  0  0  0  # atno 6908 bound_to 6896
  151.5231  133.3424  159.2940 H   0  0  0  0  0  0  0  0  0  0  0  0  # atno 6909 bound_to 6896
  144.8145  139.6819  143.6127 H   0  0  0  0  0  0  0  0  0  0  0  0  # atno 7974 bound_to 7965
  155.4688  140.0551  157.2982 H   0  0  0  0  0  0  0  0  0  0  0  0  # atno 8008 bound_to 7997
  154.4707  140.2039  155.9957 H   0  0  0  0  0  0  0  0  0  0  0  0  # atno 8009 bound_to 7997
  156.1050  140.3213  155.7999 H   0  0  0  0  0  0  0  0  0  0  0  0  # atno 8010 bound_to 7997
  139.6925  144.7106  151.1324 H   0  0  0  0  0  0  0  0  0  0  0  0  # atno 10167 bound_to 10162
  156.0939  130.4196  150.0958 H   0  0  0  0  0  0  0  0  0  0  0  0  # atno 10718 bound_to 10713
  153.2222  135.6882  153.7986 H   0  0  0  0  0  0  0  0  0  0  0  0  # atno 10763 bound_to 10752
  153.7181  135.3271  155.3262 H   0  0  0  0  0  0  0  0  0  0  0  0  # atno 10764 bound_to 10752
  154.8275  135.4606  154.1074 H   0  0  0  0  0  0  0  0  0  0  0  0  # atno 10765 bound_to 10752
  140.8134  134.2717  157.4931 H   0  0  0  0  0  0  0  0  0  0  0  0  # atno 11005 bound_to 11000
  146.2447  139.6073  142.9468 LP  0  0  0  0  0  0  0  0  0  0  0  0  # atno 17320 bound_to 7965
  145.5246  141.0430  143.2416 LP  0  0  0  0  0  0  0  0  0  0  0  0  # atno 17321 bound_to 7965
  140.7687  143.5539  150.9173 LP  0  0  0  0  0  0  0  0  0  0  0  0  # atno 17342 bound_to 10162
  139.9217  143.6598  152.3095 LP  0  0  0  0  0  0  0  0  0  0  0  0  # atno 17343 bound_to 10162
  156.8961  130.9605  151.3582 LP  0  0  0  0  0  0  0  0  0  0  0  0  # atno 17370 bound_to 10713
  157.6096  130.8573  149.8930 LP  0  0  0  0  0  0  0  0  0  0  0  0  # atno 17371 bound_to 10713
  139.8712  134.9495  156.4029 LP  0  0  0  0  0  0  0  0  0  0  0  0  # atno 17394 bound_to 11000
  140.9174  133.7669  155.9865 LP  0  0  0  0  0  0  0  0  0  0  0  0  # atno 17395 bound_to 11000

$$$$
