AV-unprocessed.smi:828|AV-procd|sdf|3860|dock3
  -GOLD-   22720 1313D 1   1.00000     0.00000
 Structure written by MMmdl.
 35 36  0  0  0  0  0  0  0  0  2 V2000
  151.5765  141.4024  156.3998 C   0  0  0  0  0  0  0  0  0  0  0  0
  151.4540  140.0147  155.8704 C   0  0  0  0  0  0  0  0  0  0  0  0
  152.4978  139.1818  155.7762 N   0  0  0  0  0  0  0  0  0  0  0  0
  152.1407  137.9479  155.2501 N   0  0  0  0  0  0  0  0  0  0  0  0
  150.8333  137.8876  154.9616 C   0  0  0  0  0  0  0  0  0  0  0  0
  150.2000  136.7451  154.4053 N   0  0  0  0  0  0  0  0  0  0  0  0
  150.1828  135.4878  154.8811 C   0  0  0  0  0  0  0  0  0  0  0  0
  150.7075  135.1135  155.9303 O   0  0  0  0  0  0  0  0  0  0  0  0
  149.5135  134.6665  154.0596 N   0  0  0  0  0  0  0  0  0  0  0  0
  149.3117  133.2387  154.2856 C   0  0  0  0  0  0  0  0  0  0  0  0
  148.5197  132.5686  153.1341 C   0  0  2  0  0  0  0  0  0  0  0  0
  147.0775  133.0877  153.0064 C   0  0  0  0  0  0  0  0  0  0  0  0
  146.3107  131.9100  152.4214 C   0  0  0  0  0  0  0  0  0  0  0  0
  146.9895  130.7163  153.0843 C   0  0  0  0  0  0  0  0  0  0  0  0
  148.4194  131.0794  153.1870 N   0  3  2  0  0  0  0  0  0  0  0  0
  149.1325  130.3695  154.2743 C   0  0  0  0  0  0  0  0  0  0  0  0
  149.9246  139.3480  155.3115 S   0  0  0  0  0  0  0  0  0  0  0  0
  152.3236  141.4421  157.1930 H   0  0  0  0  0  0  0  0  0  0  0  0
  150.6218  141.7381  156.8047 H   0  0  0  0  0  0  0  0  0  0  0  0
  151.8762  142.0802  155.6005 H   0  0  0  0  0  0  0  0  0  0  0  0
  149.7100  136.9038  153.5372 H   0  0  0  0  0  0  0  0  0  0  0  0
  149.1116  135.0567  153.2195 H   0  0  0  0  0  0  0  0  0  0  0  0
  150.2856  132.7656  154.4189 H   0  0  0  0  0  0  0  0  0  0  0  0
  148.7761  133.1325  155.2290 H   0  0  0  0  0  0  0  0  0  0  0  0
  149.0332  132.7787  152.1950 H   0  0  0  0  0  0  0  0  0  0  0  0
  146.6723  133.3273  153.9905 H   0  0  0  0  0  0  0  0  0  0  0  0
  147.0057  133.9845  152.3901 H   0  0  0  0  0  0  0  0  0  0  0  0
  145.2402  131.9559  152.6239 H   0  0  0  0  0  0  0  0  0  0  0  0
  146.4518  131.8710  151.3403 H   0  0  0  0  0  0  0  0  0  0  0  0
  146.5727  130.5733  154.0827 H   0  0  0  0  0  0  0  0  0  0  0  0
  146.8493  129.7903  152.5259 H   0  0  0  0  0  0  0  0  0  0  0  0
  148.7542  130.6542  155.2565 H   0  0  0  0  0  0  0  0  0  0  0  0
  150.2037  130.5684  154.2366 H   0  0  0  0  0  0  0  0  0  0  0  0
  148.9991  129.2928  154.1655 H   0  0  0  0  0  0  0  0  0  0  0  0
  148.8425  130.7620  152.3261 H   0  0  0  0  0  0  0  0  0  0  0  0
  1  2  1  0  0  0  0
  1 18  1  0  0  0  0
  1 19  1  0  0  0  0
  1 20  1  0  0  0  0
  2 17  1  0  0  0  0
  2  3  2  0  0  0  0
  3  4  1  0  0  0  0
  4  5  2  0  0  0  0
  5  6  1  0  0  0  0
  5 17  1  0  0  0  0
  6  7  1  0  0  0  0
  6 21  1  0  0  0  0
  7  8  2  0  0  0  0
  7  9  1  0  0  0  0
  9 10  1  0  0  0  0
  9 22  1  0  0  0  0
 10 11  1  0  0  0  0
 10 23  1  0  0  0  0
 10 24  1  0  0  0  0
 11 15  1  0  0  0  0
 11 12  1  0  0  0  0
 11 25  1  0  0  0  0
 12 13  1  0  0  0  0
 12 26  1  0  0  0  0
 12 27  1  0  0  0  0
 13 14  1  0  0  0  0
 13 28  1  0  0  0  0
 13 29  1  0  0  0  0
 14 15  1  0  0  0  0
 14 30  1  0  0  0  0
 14 31  1  0  0  0  0
 15 16  1  0  0  0  0
 15 35  1  0  0  0  0
 16 32  1  0  0  0  0
 16 33  1  0  0  0  0
 16 34  1  0  0  0  0
M  CHG  1  15   1
M  END
> <s_m_source_file>
AV-unprocessed.smi

> <i_m_source_file_index>
828

> <i_lp_mmshare_version>
43012

> <i_f3d_flags>
0

> <s_epik_input>
W0NIM11jMW5uYyhzMSlbTkhdQyg9TylbTkhdW0NIMl1bQ0BASF0yW0NIMl1bQ0gyXVtDSDJdTjJbQ0gzXQ==

> <s_epik_cmdline>
J2VwaWtfcHl0aG9uJywgJy1waCcsICc3LjAnLCAnLXRuJywgJzgnLCAnLW1hJywgJzIwMCcsICctbWV0YWxfYmluZGluZycsICctaW1hZScsICc8aW5maWxlLm1hZT4nLCAnLW9tYWUnLCAnPG91dGZpbGUubWFlPic=

> <r_lp_tautomer_probability>
1

> <r_epik_Ionization_Penalty>
0.00466477

> <r_epik_Ionization_Penalty_Charging>
0.00372199

> <r_epik_Ionization_Penalty_Neutral>
0.000942783

> <r_epik_State_Penalty>
-0

> <r_epik_Charging_Adjusted_Penalty>
0.00372199

> <i_epik_Tot_Q>
1

> <i_epik_Tot_abs_Q>
1

> <r_epik_Metal_State_Penalty>
0.28212

> <b_epik_Metal_Only>
0

> <s_lp_Force_Field>
OPLS_2005

> <r_lp_Energy>
27.2564

> <b_lp_Chiralities_Consistent>
1

> <s_lp_Variant>
AV-unprocessed.smi:828-3

> <Gold.Version>
5.8.1

> <Gold.Id.Protein>
6NUR|6NUR_protein|mol2

> <Gold.PLP.Fitness>
39.7063

> <Gold.PLP.PLP>
-26.7401

> <Gold.PLP.part.hbond>
-6.9890

> <Gold.PLP.part.metal>
0.0000

> <Gold.PLP.part.buried>
-2.5631

> <Gold.PLP.part.nonpolar>
-17.0586

> <Gold.PLP.part.repulsive>
0.2361

> <Gold.PLP.ligand.clash>
0.0000

> <Gold.PLP.ligand.torsion>
0.5347

> <Gold.PLP.Chemscore.Hbond>
4.6775

> <Gold.PLP.Chemscore.CHOScore>
0.0000

> <Gold.PLP.Chemscore.Metal>
0.0000

> <Gold.Chemscore.Hbonds>
donor molecule, donor type, donor heavy atom, donor atom, acceptor molecule, acceptor atom, score
      L1  H     6    21       P1  7948  0.99
      L1  H     9    22       P1  7948  0.85
      L1  H    15    35       P1 10747  1.00
      P1  H  7997  8010       L1     3  0.75

> <Gold.PLP.Chemscore.Internal.Correction>
0.0032

> <Gold.Rescore>
     Score         DG    S(hbond)    S(metal)    S(lipo)     H(rot)  DE(clash)    DE(int)     intcor
     15.31     -15.96       2.53        0.00      46.55       1.33       0.06       0.60       ----

> <Gold.Chemscore.Fitness>
15.3088

> <Gold.Chemscore.DG>
-15.9626

> <Gold.Chemscore.ZeroCoef>
-5.4800

> <Gold.Chemscore.Hbond>
2.5267

> <Gold.Chemscore.Metal>
0.0000

> <Gold.Chemscore.Lipo>
46.5522

> <Gold.Chemscore.Internal_Hbond>
0.0000

> <Gold.Chemscore.DEClash>
0.0580

> <Gold.Chemscore.DEInternal>
0.5958

> <Gold.Chemscore.Rot>
1.3294

> <Gold.Chemscore.Internal.Correction>
   9.000000E+99

> <Gold.Chemscore.Hbonds>
donor molecule, donor type, donor heavy atom, donor atom, acceptor molecule, acceptor atom, score
      L1  H     6    21       P1  7948  0.57
      L1  H     9    22       P1  7948  0.14
      L1  H    15    35       P1 10747  0.49
      P1  H  7997  8010       L1     3  0.64

> <Gold.Chemscore.Hbond.Weighted>
-8.4393

> <Gold.Chemscore.Metal.Weighted>
-0.0000

> <Gold.Chemscore.Lipo.Weighted>
-5.4466

> <Gold.Chemscore.Internal_Hbond.Weighted>
0.0000

> <Gold.Chemscore.DEClash.Weighted>
0.0580

> <Gold.Chemscore.DEInternal.Weighted>
0.5958

> <Gold.Chemscore.Rot.Weighted>
3.4033

> <Gold.Chemscore.Internal.Correction.Weighted>
   9.000000E+99

> <Gold.Protein.RotatedTorsions>
[ 6907 6896 6895 6894 ] final -125.09 input  -60.11 | X-H torsion
[ 7974 7965 7964 7962 ] final  108.81 input  175.53 | X-H torsion
[ 8008 7997 7996 7995 ] final   79.40 input   59.86 | X-H torsion
[ 10167 10162 10161 10158 ] final  -29.94 input  -65.29 | X-H torsion
[ 10718 10713 10712 10709 ] final  166.10 input   66.30 | X-H torsion
[ 10763 10752 10751 10750 ] final  -37.63 input  -60.55 | X-H torsion
[ 11005 11000 10999 10996 ] final   -0.28 input  -57.11 | X-H torsion

> <Gold.Protein.ActiveResidues>
 VAL166  LYS551  ARG553  GLY616  TRP617  ASP618  TYR619  PRO620  LYS621  CYS622 
 ASP623  PHE694  ASN695  SER759  ASP760  ASP761  ALA762  ILE779  LEU786  VAL792 
 PHE793  MET794  SER795  GLU796  ALA797  LYS798  CYS799  TRP800  GLU811  SER814 

> <Gold.Protein.RotatedAtoms>
  150.8833  133.7342  159.2925 H   0  0  0  0  0  0  0  0  0  0  0  0  # atno 6907 bound_to 6896
  151.4916  135.1056  159.9814 H   0  0  0  0  0  0  0  0  0  0  0  0  # atno 6908 bound_to 6896
  152.4774  133.8124  159.7066 H   0  0  0  0  0  0  0  0  0  0  0  0  # atno 6909 bound_to 6896
  145.2759  139.2650  143.3941 H   0  0  0  0  0  0  0  0  0  0  0  0  # atno 7974 bound_to 7965
  155.8691  140.3450  155.5809 H   0  0  0  0  0  0  0  0  0  0  0  0  # atno 8008 bound_to 7997
  155.7847  140.0863  157.2060 H   0  0  0  0  0  0  0  0  0  0  0  0  # atno 8009 bound_to 7997
  154.4016  140.1494  156.3080 H   0  0  0  0  0  0  0  0  0  0  0  0  # atno 8010 bound_to 7997
  140.7255  143.3888  151.1467 H   0  0  0  0  0  0  0  0  0  0  0  0  # atno 10167 bound_to 10162
  157.0707  131.0365  151.2612 H   0  0  0  0  0  0  0  0  0  0  0  0  # atno 10718 bound_to 10713
  153.8994  135.6804  153.4756 H   0  0  0  0  0  0  0  0  0  0  0  0  # atno 10763 bound_to 10752
  153.1137  135.4771  154.9077 H   0  0  0  0  0  0  0  0  0  0  0  0  # atno 10764 bound_to 10752
  154.7582  135.3203  154.8382 H   0  0  0  0  0  0  0  0  0  0  0  0  # atno 10765 bound_to 10752
  140.6345  133.9545  155.8292 H   0  0  0  0  0  0  0  0  0  0  0  0  # atno 11005 bound_to 11000
  146.3232  140.3213  142.8633 LP  0  0  0  0  0  0  0  0  0  0  0  0  # atno 17320 bound_to 7965
  144.9295  140.7959  143.5698 LP  0  0  0  0  0  0  0  0  0  0  0  0  # atno 17321 bound_to 7965
  139.7489  143.8808  152.3071 LP  0  0  0  0  0  0  0  0  0  0  0  0  # atno 17342 bound_to 10162
  139.8655  144.7095  150.9048 LP  0  0  0  0  0  0  0  0  0  0  0  0  # atno 17343 bound_to 10162
  157.4880  130.7805  149.7479 LP  0  0  0  0  0  0  0  0  0  0  0  0  # atno 17370 bound_to 10713
  155.9951  130.3914  150.2832 LP  0  0  0  0  0  0  0  0  0  0  0  0  # atno 17371 bound_to 10713
  141.0651  134.0288  157.3604 LP  0  0  0  0  0  0  0  0  0  0  0  0  # atno 17394 bound_to 11000
  139.9103  135.0189  156.7664 LP  0  0  0  0  0  0  0  0  0  0  0  0  # atno 17395 bound_to 11000

$$$$
