AV-unprocessed.smi:686|AV-procd|sdf|3339|dock8
  -GOLD-   22720 0313D 1   1.00000     0.00000
 Structure written by MMmdl.
 41 42  0  0  0  0  0  0  0  0  2 V2000
  147.0962  140.5510  153.2175 C   0  0  0  0  0  0  0  0  0  0  0  0
  147.3107  139.0498  152.9818 C   0  0  2  0  0  0  0  0  0  0  0  0
  146.2406  138.4052  152.1007 C   0  0  0  0  0  0  0  0  0  0  0  0
  146.2758  136.9696  152.4449 N   0  3  2  0  0  0  0  0  0  0  0  0
  145.1049  136.1718  151.9817 C   0  0  0  0  0  0  0  0  0  0  0  0
  145.2130  135.8393  150.4816 C   0  0  0  0  0  0  0  0  0  0  0  0
  143.7766  136.9022  152.2545 C   0  0  0  0  0  0  0  0  0  0  0  0
  146.5305  136.9209  153.9024 C   0  0  0  0  0  0  0  0  0  0  0  0
  147.2996  138.2047  154.2664 C   0  0  1  0  0  0  0  0  0  0  0  0
  148.6703  137.9040  154.6891 N   0  0  0  0  0  0  0  0  0  0  0  0
  149.5693  139.1425  155.4861 S   0  0  0  0  0  0  0  0  0  0  0  0
  149.7682  140.2316  154.5182 O   0  0  0  0  0  0  0  0  0  0  0  0
  148.9098  139.4168  156.7722 O   0  0  0  0  0  0  0  0  0  0  0  0
  151.1841  138.3190  155.8142 C   0  0  0  0  0  0  0  0  0  0  0  0
  151.4898  138.3768  157.2835 C   0  0  0  0  0  0  0  0  0  0  0  0
  150.7338  137.8461  158.3653 C   0  0  0  0  0  0  0  0  0  0  0  0
  151.4718  138.1808  159.4639 C   0  0  0  0  0  0  0  0  0  0  0  0
  152.5890  138.8584  159.0971 O   0  0  0  0  0  0  0  0  0  0  0  0
  152.5923  138.9773  157.7027 N   0  0  0  0  0  0  0  0  0  0  0  0
  146.1401  140.7451  153.7043 H   0  0  0  0  0  0  0  0  0  0  0  0
  147.1089  141.1005  152.2758 H   0  0  0  0  0  0  0  0  0  0  0  0
  147.8822  140.9616  153.8519 H   0  0  0  0  0  0  0  0  0  0  0  0
  148.2674  138.9158  152.4730 H   0  0  0  0  0  0  0  0  0  0  0  0
  145.2559  138.8118  152.3387 H   0  0  0  0  0  0  0  0  0  0  0  0
  146.4343  138.5790  151.0418 H   0  0  0  0  0  0  0  0  0  0  0  0
  145.0914  135.2323  152.5364 H   0  0  0  0  0  0  0  0  0  0  0  0
  144.3348  135.2914  150.1387 H   0  0  0  0  0  0  0  0  0  0  0  0
  146.0790  135.2147  150.2618 H   0  0  0  0  0  0  0  0  0  0  0  0
  145.2919  136.7449  149.8792 H   0  0  0  0  0  0  0  0  0  0  0  0
  142.9314  136.3334  151.8652 H   0  0  0  0  0  0  0  0  0  0  0  0
  143.7588  137.8846  151.7812 H   0  0  0  0  0  0  0  0  0  0  0  0
  143.5964  137.0391  153.3207 H   0  0  0  0  0  0  0  0  0  0  0  0
  145.5832  136.9068  154.4441 H   0  0  0  0  0  0  0  0  0  0  0  0
  147.0719  136.0111  154.1648 H   0  0  0  0  0  0  0  0  0  0  0  0
  146.7818  138.7310  155.0704 H   0  0  0  0  0  0  0  0  0  0  0  0
  149.2093  137.5048  153.9204 H   0  0  0  0  0  0  0  0  0  0  0  0
  151.1205  137.2868  155.4705 H   0  0  0  0  0  0  0  0  0  0  0  0
  151.9539  138.8199  155.2262 H   0  0  0  0  0  0  0  0  0  0  0  0
  149.7981  137.3077  158.3398 H   0  0  0  0  0  0  0  0  0  0  0  0
  151.3422  138.0165  160.5235 H   0  0  0  0  0  0  0  0  0  0  0  0
  147.0988  136.5910  151.9983 H   0  0  0  0  0  0  0  0  0  0  0  0
  1  2  1  0  0  0  0
  1 20  1  0  0  0  0
  1 21  1  0  0  0  0
  1 22  1  0  0  0  0
  2  9  1  0  0  0  0
  2  3  1  0  0  0  0
  2 23  1  0  0  0  0
  3  4  1  0  0  0  0
  3 24  1  0  0  0  0
  3 25  1  0  0  0  0
  4  5  1  0  0  0  0
  4  8  1  0  0  0  0
  4 41  1  0  0  0  0
  5  6  1  0  0  0  0
  5  7  1  0  0  0  0
  5 26  1  0  0  0  0
  6 27  1  0  0  0  0
  6 28  1  0  0  0  0
  6 29  1  0  0  0  0
  7 30  1  0  0  0  0
  7 31  1  0  0  0  0
  7 32  1  0  0  0  0
  8  9  1  0  0  0  0
  8 33  1  0  0  0  0
  8 34  1  0  0  0  0
  9 10  1  0  0  0  0
  9 35  1  0  0  0  0
 10 11  1  0  0  0  0
 10 36  1  0  0  0  0
 11 12  2  0  0  0  0
 11 13  2  0  0  0  0
 11 14  1  0  0  0  0
 14 15  1  0  0  0  0
 14 37  1  0  0  0  0
 14 38  1  0  0  0  0
 15 19  2  0  0  0  0
 15 16  1  0  0  0  0
 16 17  2  0  0  0  0
 16 39  1  0  0  0  0
 17 18  1  0  0  0  0
 17 40  1  0  0  0  0
 18 19  1  0  0  0  0
M  CHG  1   4   1
M  END
> <s_m_source_file>
AV-unprocessed.smi

> <i_m_source_file_index>
686

> <i_lp_mmshare_version>
43012

> <i_f3d_flags>
0

> <s_epik_input>
W0NIM11bQ0BASF0xW0NIMl1OKFtDSF0oW0NIM10pW0NIM10pW0NIMl1bQ0BIXTFbTkhdUyg9TykoPU8pW0NIMl1jMltjSF1bY0hdb24y

> <s_epik_cmdline>
J2VwaWtfcHl0aG9uJywgJy1waCcsICc3LjAnLCAnLXRuJywgJzgnLCAnLW1hJywgJzIwMCcsICctbWV0YWxfYmluZGluZycsICctaW1hZScsICc8aW5maWxlLm1hZT4nLCAnLW9tYWUnLCAnPG91dGZpbGUubWFlPic=

> <r_epik_Ionization_Penalty>
0.00200818

> <r_epik_Ionization_Penalty_Charging>
0.000701289

> <r_epik_Ionization_Penalty_Neutral>
0.00130689

> <r_epik_State_Penalty>
0.00131314

> <r_epik_Charging_Adjusted_Penalty>
0.00201443

> <i_epik_Tot_Q>
1

> <i_epik_Tot_abs_Q>
1

> <r_epik_Metal_State_Penalty>
0.310831

> <b_epik_Metal_Only>
0

> <s_lp_Force_Field>
OPLS_2005

> <r_lp_Energy>
20.8584

> <b_lp_Chiralities_Consistent>
1

> <s_lp_Variant>
AV-unprocessed.smi:686-3

> <Gold.Version>
5.8.1

> <Gold.Id.Protein>
6NUR|6NUR_protein|mol2

> <Gold.PLP.Fitness>
38.4011

> <Gold.PLP.PLP>
-26.2613

> <Gold.PLP.part.hbond>
-4.7103

> <Gold.PLP.part.metal>
0.0000

> <Gold.PLP.part.buried>
-2.0377

> <Gold.PLP.part.nonpolar>
-21.4061

> <Gold.PLP.part.repulsive>
1.3082

> <Gold.PLP.ligand.clash>
0.0000

> <Gold.PLP.ligand.torsion>
0.5329

> <Gold.PLP.Chemscore.Hbond>
4.3374

> <Gold.PLP.Chemscore.CHOScore>
0.0000

> <Gold.PLP.Chemscore.Metal>
0.0000

> <Gold.Chemscore.Hbonds>
donor molecule, donor type, donor heavy atom, donor atom, acceptor molecule, acceptor atom, score
      L1  H     4    41       P1  7948  2.00
      L1  H    10    36       P1  7948  0.04
      P1  H  7989  7998       L1    12  0.51

> <Gold.PLP.Chemscore.Internal.Correction>
0.1933

> <Gold.Rescore>
     Score         DG    S(hbond)    S(metal)    S(lipo)     H(rot)  DE(clash)    DE(int)     intcor
     16.13     -17.88       2.98        0.00      62.59       1.91       0.74       1.01       ----

> <Gold.Chemscore.Fitness>
16.1316

> <Gold.Chemscore.DG>
-17.8784

> <Gold.Chemscore.ZeroCoef>
-5.4800

> <Gold.Chemscore.Hbond>
2.9848

> <Gold.Chemscore.Metal>
0.0000

> <Gold.Chemscore.Lipo>
62.5876

> <Gold.Chemscore.Internal_Hbond>
0.0000

> <Gold.Chemscore.DEClash>
0.7381

> <Gold.Chemscore.DEInternal>
1.0087

> <Gold.Chemscore.Rot>
1.9115

> <Gold.Chemscore.Internal.Correction>
   9.000000E+99

> <Gold.Chemscore.Hbonds>
donor molecule, donor type, donor heavy atom, donor atom, acceptor molecule, acceptor atom, score
      L1  H     4    41       P1  7948  0.98
      L1  H    10    36       P1  7948  0.08
      P1  H  7989  7998       L1    12  0.50
      P1  H  7997  8008       L1    19  0.07

> <Gold.Chemscore.Hbond.Weighted>
-9.9692

> <Gold.Chemscore.Metal.Weighted>
-0.0000

> <Gold.Chemscore.Lipo.Weighted>
-7.3227

> <Gold.Chemscore.Internal_Hbond.Weighted>
0.0000

> <Gold.Chemscore.DEClash.Weighted>
0.7381

> <Gold.Chemscore.DEInternal.Weighted>
1.0087

> <Gold.Chemscore.Rot.Weighted>
4.8935

> <Gold.Chemscore.Internal.Correction.Weighted>
   9.000000E+99

> <Gold.Protein.RotatedTorsions>
[ 6907 6896 6895 6894 ] final -126.57 input  -60.11 | X-H torsion
[ 7974 7965 7964 7962 ] final   40.97 input  175.53 | X-H torsion
[ 8008 7997 7996 7995 ] final  -48.15 input   59.86 | X-H torsion
[ 10167 10162 10161 10158 ] final -125.38 input  -65.29 | X-H torsion
[ 10718 10713 10712 10709 ] final  -22.64 input   66.30 | X-H torsion
[ 10763 10752 10751 10750 ] final  -90.71 input  -60.55 | X-H torsion
[ 11005 11000 10999 10996 ] final  169.58 input  -57.11 | X-H torsion

> <Gold.Protein.ActiveResidues>
 VAL166  LYS551  ARG553  GLY616  TRP617  ASP618  TYR619  PRO620  LYS621  CYS622 
 ASP623  PHE694  ASN695  SER759  ASP760  ASP761  ALA762  ILE779  LEU786  VAL792 
 PHE793  MET794  SER795  GLU796  ALA797  LYS798  CYS799  TRP800  GLU811  SER814 

> <Gold.Protein.RotatedAtoms>
  150.8983  133.7152  159.2885 H   0  0  0  0  0  0  0  0  0  0  0  0  # atno 6907 bound_to 6896
  151.4679  135.1042  159.9753 H   0  0  0  0  0  0  0  0  0  0  0  0  # atno 6908 bound_to 6896
  152.4861  133.8330  159.7168 H   0  0  0  0  0  0  0  0  0  0  0  0  # atno 6909 bound_to 6896
  146.0861  139.5470  142.9505 H   0  0  0  0  0  0  0  0  0  0  0  0  # atno 7974 bound_to 7965
  154.4025  140.1329  156.4291 H   0  0  0  0  0  0  0  0  0  0  0  0  # atno 8008 bound_to 7997
  155.7568  140.3487  155.5158 H   0  0  0  0  0  0  0  0  0  0  0  0  # atno 8009 bound_to 7997
  155.8897  140.1001  157.1417 H   0  0  0  0  0  0  0  0  0  0  0  0  # atno 8010 bound_to 7997
  139.9827  143.5725  152.2372 H   0  0  0  0  0  0  0  0  0  0  0  0  # atno 10167 bound_to 10162
  156.5018  130.4590  149.6697 H   0  0  0  0  0  0  0  0  0  0  0  0  # atno 10718 bound_to 10713
  154.6686  135.5294  153.8109 H   0  0  0  0  0  0  0  0  0  0  0  0  # atno 10763 bound_to 10752
  153.0487  135.6523  154.0760 H   0  0  0  0  0  0  0  0  0  0  0  0  # atno 10764 bound_to 10752
  154.0662  135.2958  155.3296 H   0  0  0  0  0  0  0  0  0  0  0  0  # atno 10765 bound_to 10752
  140.2993  134.7608  157.3903 H   0  0  0  0  0  0  0  0  0  0  0  0  # atno 11005 bound_to 11000
  145.6127  141.0337  143.1958 LP  0  0  0  0  0  0  0  0  0  0  0  0  # atno 17320 bound_to 7965
  144.7327  139.7678  143.7341 LP  0  0  0  0  0  0  0  0  0  0  0  0  # atno 17321 bound_to 7965
  139.6398  144.7653  151.2363 LP  0  0  0  0  0  0  0  0  0  0  0  0  # atno 17342 bound_to 10162
  140.7483  143.6337  150.8399 LP  0  0  0  0  0  0  0  0  0  0  0  0  # atno 17343 bound_to 10162
  156.3325  130.7339  151.2271 LP  0  0  0  0  0  0  0  0  0  0  0  0  # atno 17370 bound_to 10713
  157.7462  131.0426  150.4701 LP  0  0  0  0  0  0  0  0  0  0  0  0  # atno 17371 bound_to 10713
  140.1124  134.5328  155.8255 LP  0  0  0  0  0  0  0  0  0  0  0  0  # atno 17394 bound_to 11000
  141.2131  133.6729  156.6713 LP  0  0  0  0  0  0  0  0  0  0  0  0  # atno 17395 bound_to 11000

$$$$
