#       Name:                AV-unprocessed.smi:2780
#       Creating user name   scv26
#       Creation time:       Fri Mar 27 15:15:10 2020


#       File generated by GOLD software.
#

@<TRIPOS>MOLECULE
AV-unprocessed.smi:2780
    49    51     1
SMALL
NO_CHARGES


@<TRIPOS>ATOM
      1 ****         0.0912   3.1462  -1.5504 C.3            1 S1                 0.0000
      2 ****        -1.3205   2.5893  -1.4653 C.2            1 S1                 0.0000
      3 ****        -2.2158   2.8282  -2.4441 C.2            1 S1                 0.0000
      4 ****        -3.6633   2.3691  -2.4260 C.3            1 S1                 0.0000
      5 ****        -3.9851   1.4298  -1.2520 C.3            1 S1                 0.0000
      6 ****        -3.2289   1.8429   0.0227 C.3            1 S1                 0.0000
      7 ****        -3.7137   1.0679   1.2603 C.3            1 S1                 0.0000
      8 ****        -1.6910   1.7986  -0.2032 C.3            1 S1                 0.0000
      9 ****        -1.1250   0.3542  -0.2255 C.3            1 S1                 0.0000
     10 ****         0.3504   0.3131  -0.2324 N.4            1 S1                 1.0000
     11 ****         0.9143  -1.0500  -0.2378 C.3            1 S1                 0.0000
     12 ****         2.4485  -1.0119  -0.2451 C.3            1 S1                 0.0000
     13 ****         3.0149  -2.3477  -0.1967 N.pl3          1 S1                 0.0000
     14 ****         3.1262  -3.2422  -1.1909 C.2            1 S1                 0.0000
     15 ****         3.7063  -4.3925  -0.8527 N.2            1 S1                 0.0000
     16 ****         4.0137  -4.2460   0.4853 N.2            1 S1                 0.0000
     17 ****         3.5741  -3.0286   0.8249 C.2            1 S1                 0.0000
     18 ****         3.7344  -2.4421   2.1914 C.3            1 S1                 0.0000
     19 ****         3.4495  -3.2566   3.4341 C.3            1 S1                 0.0000
     20 ****         2.5302  -2.1264   3.0512 C.3            1 S1                 0.0000
     21 ****         0.3616   3.6475  -0.6209 H              1 S1                 0.0000
     22 ****         0.1750   3.8771  -2.3555 H              1 S1                 0.0000
     23 ****         0.8201   2.3628  -1.7506 H              1 S1                 0.0000
     24 ****        -1.9233   3.4133  -3.3042 H              1 S1                 0.0000
     25 ****        -4.2864   3.2617  -2.3613 H              1 S1                 0.0000
     26 ****        -3.9047   1.8850  -3.3726 H              1 S1                 0.0000
     27 ****        -5.0615   1.4298  -1.0757 H              1 S1                 0.0000
     28 ****        -3.7250   0.4055  -1.5198 H              1 S1                 0.0000
     29 ****        -3.4847   2.8869   0.2142 H              1 S1                 0.0000
     30 ****        -3.6460  -0.0108   1.1205 H              1 S1                 0.0000
     31 ****        -4.7582   1.2970   1.4734 H              1 S1                 0.0000
     32 ****        -3.1344   1.3340   2.1448 H              1 S1                 0.0000
     33 ****        -1.2402   2.3185   0.6435 H              1 S1                 0.0000
     34 ****        -1.4502  -0.1985   0.6548 H              1 S1                 0.0000
     35 ****        -1.4982  -0.1859  -1.0962 H              1 S1                 0.0000
     36 ****         0.6783   0.8012  -1.0538 H              1 S1                 0.0000
     37 ****         0.5560  -1.5868   0.6410 H              1 S1                 0.0000
     38 ****         0.5484  -1.5872  -1.1141 H              1 S1                 0.0000
     39 ****         2.8126  -0.5185  -1.1473 H              1 S1                 0.0000
     40 ****         2.8224  -0.4339   0.6005 H              1 S1                 0.0000
     41 ****         2.7749  -3.0457  -2.1933 H              1 S1                 0.0000
     42 ****         4.5752  -1.7517   2.2172 H              1 S1                 0.0000
     43 ****         3.0770  -4.2708   3.3041 H              1 S1                 0.0000
     44 ****         4.1015  -3.1063   4.2922 H              1 S1                 0.0000
     45 ****         2.5672  -1.2208   3.6529 H              1 S1                 0.0000
     46 ****         1.5463  -2.3959   2.6733 H              1 S1                 0.0000
     47 ****         0.6876   0.7979   0.5871 H              1 S1                 0.0000
     48 ****         3.8802  -5.1850  -1.4372 LP             1 S1                 0.0000
     49 ****         4.4696  -4.9108   1.0770 LP             1 S1                 0.0000
@<TRIPOS>BOND
    1    1    2 1     
    2    1   21 1     
    3    1   22 1     
    4    1   23 1     
    5    2    8 1     
    6    2    3 2     
    7    3    4 1     
    8    3   24 1     
    9    4    5 1     
   10    4   25 1     
   11    4   26 1     
   12    5    6 1     
   13    5   27 1     
   14    5   28 1     
   15    6    7 1     
   16    6    8 1     
   17    6   29 1     
   18    7   30 1     
   19    7   31 1     
   20    7   32 1     
   21    8    9 1     
   22    8   33 1     
   23    9   10 1     
   24    9   34 1     
   25    9   35 1     
   26   10   11 1     
   27   10   36 1     
   28   10   47 1     
   29   11   12 1     
   30   11   37 1     
   31   11   38 1     
   32   12   13 1     
   33   12   39 1     
   34   12   40 1     
   35   13   17 1     
   36   13   14 1     
   37   14   15 2     
   38   14   41 1     
   39   15   16 1     
   40   16   17 2     
   41   17   18 1     
   42   18   20 1     
   43   18   19 1     
   44   18   42 1     
   45   19   20 1     
   46   19   43 1     
   47   19   44 1     
   48   20   45 1     
   49   20   46 1     
   50   15   48 1     
   51   16   49 1     
@<TRIPOS>SUBSTRUCTURE
      1 S1             1
@<TRIPOS>SET
LONE_PAIRS      STATIC     ATOMS    <user>   **** ""
2 48 49
DONOR_HYDROGENS      STATIC     ATOMS    <user>   **** ""
2 36 47
ATOM$BLUE        STATIC     ATOMS    COLORGROUP SYSTEM
2 48 49
ATOM$RED        STATIC     ATOMS    COLORGROUP SYSTEM
2 36 47
