AV-unprocessed.smi:2898|AV-procd|sdf|11141|dock9
  -GOLD-   2272016 23D 1   1.00000     0.00000
 Structure written by MMmdl.
 44 45  0  0  0  0  0  0  0  0  1 V2000
  152.5769  138.0067  157.9720 C   0  0  0  0  0  0  0  0  0  0  0  0
  151.9112  138.5930  156.7600 C   0  0  0  0  0  0  0  0  0  0  0  0
  152.5292  139.5361  156.0709 N   0  0  0  0  0  0  0  0  0  0  0  0
  151.6555  139.8880  155.0393 O   0  0  0  0  0  0  0  0  0  0  0  0
  150.5307  139.1363  155.1497 C   0  0  0  0  0  0  0  0  0  0  0  0
  149.4664  139.3951  154.1369 C   0  0  0  0  0  0  0  0  0  0  0  0
  150.6292  138.2844  156.2187 C   0  0  0  0  0  0  0  0  0  0  0  0
  149.6317  137.2781  156.7560 C   0  0  2  0  0  0  0  0  0  0  0  0
  148.3048  137.3218  155.9826 C   0  0  0  0  0  0  0  0  0  0  0  0
  149.4054  137.4317  158.2758 C   0  0  0  0  0  0  0  0  0  0  0  0
  148.3279  136.5675  158.7524 N   0  0  0  0  0  0  0  0  0  0  0  0
  147.8341  136.5422  160.0029 C   0  0  0  0  0  0  0  0  0  0  0  0
  148.1914  137.3406  160.8707 O   0  0  0  0  0  0  0  0  0  0  0  0
  146.8069  135.4411  160.3481 C   0  0  0  0  0  0  0  0  0  0  0  0
  145.5409  135.6363  159.6100 C   0  0  0  0  0  0  0  0  0  0  0  0
  144.5499  135.7892  159.0311 N   0  0  0  0  0  0  0  0  0  0  0  0
  147.4059  134.0605  159.9767 C   0  0  0  0  0  0  0  0  0  0  0  0
  146.4928  132.8961  160.3991 C   0  0  0  0  0  0  0  0  0  0  0  0
  146.1920  132.9501  161.9045 C   0  0  0  0  0  0  0  0  0  0  0  0
  145.6054  134.3103  162.3106 C   0  0  0  0  0  0  0  0  0  0  0  0
  146.5265  135.4625  161.8715 C   0  0  0  0  0  0  0  0  0  0  0  0
  151.9838  138.1932  158.8677 H   0  0  0  0  0  0  0  0  0  0  0  0
  153.5670  138.4332  158.1378 H   0  0  0  0  0  0  0  0  0  0  0  0
  152.6944  136.9280  157.8687 H   0  0  0  0  0  0  0  0  0  0  0  0
  148.4792  139.3876  154.5978 H   0  0  0  0  0  0  0  0  0  0  0  0
  149.4839  138.6349  153.3562 H   0  0  0  0  0  0  0  0  0  0  0  0
  149.6050  140.3675  153.6640 H   0  0  0  0  0  0  0  0  0  0  0  0
  150.0329  136.2751  156.6053 H   0  0  0  0  0  0  0  0  0  0  0  0
  148.4673  137.1651  154.9159 H   0  0  0  0  0  0  0  0  0  0  0  0
  147.7941  138.2763  156.1063 H   0  0  0  0  0  0  0  0  0  0  0  0
  147.6266  136.5418  156.3292 H   0  0  0  0  0  0  0  0  0  0  0  0
  150.3296  137.2336  158.8204 H   0  0  0  0  0  0  0  0  0  0  0  0
  149.1375  138.4632  158.5062 H   0  0  0  0  0  0  0  0  0  0  0  0
  147.9747  135.8872  158.0950 H   0  0  0  0  0  0  0  0  0  0  0  0
  147.5810  134.0069  158.9011 H   0  0  0  0  0  0  0  0  0  0  0  0
  148.3808  133.9271  160.4485 H   0  0  0  0  0  0  0  0  0  0  0  0
  145.5597  132.9287  159.8359 H   0  0  0  0  0  0  0  0  0  0  0  0
  146.9665  131.9459  160.1512 H   0  0  0  0  0  0  0  0  0  0  0  0
  145.5015  132.1509  162.1753 H   0  0  0  0  0  0  0  0  0  0  0  0
  147.1098  132.7682  162.4651 H   0  0  0  0  0  0  0  0  0  0  0  0
  144.6167  134.4320  161.8669 H   0  0  0  0  0  0  0  0  0  0  0  0
  145.4620  134.3428  163.3909 H   0  0  0  0  0  0  0  0  0  0  0  0
  147.4603  135.3949  162.4321 H   0  0  0  0  0  0  0  0  0  0  0  0
  146.0719  136.4135  162.1530 H   0  0  0  0  0  0  0  0  0  0  0  0
  1  2  1  0  0  0  0
  1 22  1  0  0  0  0
  1 23  1  0  0  0  0
  1 24  1  0  0  0  0
  2  7  1  0  0  0  0
  2  3  2  0  0  0  0
  3  4  1  0  0  0  0
  4  5  1  0  0  0  0
  5  6  1  0  0  0  0
  5  7  2  0  0  0  0
  6 25  1  0  0  0  0
  6 26  1  0  0  0  0
  6 27  1  0  0  0  0
  7  8  1  0  0  0  0
  8  9  1  0  0  0  0
  8 10  1  0  0  0  0
  8 28  1  0  0  0  0
  9 29  1  0  0  0  0
  9 30  1  0  0  0  0
  9 31  1  0  0  0  0
 10 11  1  0  0  0  0
 10 32  1  0  0  0  0
 10 33  1  0  0  0  0
 11 12  1  0  0  0  0
 11 34  1  0  0  0  0
 12 13  2  0  0  0  0
 12 14  1  0  0  0  0
 14 21  1  0  0  0  0
 14 15  1  0  0  0  0
 14 17  1  0  0  0  0
 15 16  3  0  0  0  0
 17 18  1  0  0  0  0
 17 35  1  0  0  0  0
 17 36  1  0  0  0  0
 18 19  1  0  0  0  0
 18 37  1  0  0  0  0
 18 38  1  0  0  0  0
 19 20  1  0  0  0  0
 19 39  1  0  0  0  0
 19 40  1  0  0  0  0
 20 21  1  0  0  0  0
 20 41  1  0  0  0  0
 20 42  1  0  0  0  0
 21 43  1  0  0  0  0
 21 44  1  0  0  0  0
M  END
> <s_m_source_file>
AV-unprocessed.smi

> <i_m_source_file_index>
2898

> <i_lp_mmshare_version>
43012

> <i_f3d_flags>
0

> <s_epik_input>
W0NIM11jMW5vYyhbQ0gzXSljMVtDQEhdKFtDSDNdKVtDSDJdW05IXUMoPU8pQzIoQyNOKVtDSDJdW0NIMl1bQ0gyXVtDSDJdW0NIMl0y

> <s_epik_cmdline>
J2VwaWtfcHl0aG9uJywgJy1waCcsICc3LjAnLCAnLXRuJywgJzgnLCAnLW1hJywgJzIwMCcsICctbWV0YWxfYmluZGluZycsICctaW1hZScsICc8aW5maWxlLm1hZT4nLCAnLW9tYWUnLCAnPG91dGZpbGUubWFlPic=

> <r_lp_tautomer_probability>
1

> <r_epik_Ionization_Penalty>
4.33734e-07

> <r_epik_Ionization_Penalty_Charging>
0

> <r_epik_Ionization_Penalty_Neutral>
4.33734e-07

> <r_epik_State_Penalty>
-0

> <r_epik_Charging_Adjusted_Penalty>
0

> <i_epik_Tot_Q>
0

> <i_epik_Tot_abs_Q>
0

> <r_epik_Metal_State_Penalty>
-0

> <b_epik_Metal_Only>
0

> <s_lp_Force_Field>
OPLS_2005

> <r_lp_Energy>
7.89046

> <b_lp_Chiralities_Consistent>
1

> <s_lp_Variant>
AV-unprocessed.smi:2898-1

> <Gold.Version>
5.8.1

> <Gold.Id.Protein>
6NUR|6NUR_protein|mol2

> <Gold.PLP.Fitness>
35.9719

> <Gold.PLP.PLP>
-26.2914

> <Gold.PLP.part.hbond>
-3.9394

> <Gold.PLP.part.metal>
0.0000

> <Gold.PLP.part.buried>
-3.7681

> <Gold.PLP.part.nonpolar>
-19.1055

> <Gold.PLP.part.repulsive>
0.1598

> <Gold.PLP.ligand.clash>
0.0000

> <Gold.PLP.ligand.torsion>
0.3189

> <Gold.PLP.Chemscore.Hbond>
3.4182

> <Gold.PLP.Chemscore.CHOScore>
0.0000

> <Gold.PLP.Chemscore.Metal>
0.0000

> <Gold.Chemscore.Hbonds>
donor molecule, donor type, donor heavy atom, donor atom, acceptor molecule, acceptor atom, score
      P1  H  6931  6943       L1    13  0.83
      P1  H  6934  6947       L1    13  0.62
      P1  H  7989  7998       L1     4  1.00
      P1  H  7997  8008       L1     3  1.00

> <Gold.PLP.Chemscore.Internal.Correction>
0.0636

> <Gold.Rescore>
     Score         DG    S(hbond)    S(metal)    S(lipo)     H(rot)  DE(clash)    DE(int)     intcor
     19.90     -21.17       3.44        0.00      69.17       1.52       0.03       1.23       ----

> <Gold.Chemscore.Fitness>
19.9011

> <Gold.Chemscore.DG>
-21.1682

> <Gold.Chemscore.ZeroCoef>
-5.4800

> <Gold.Chemscore.Hbond>
3.4425

> <Gold.Chemscore.Metal>
0.0000

> <Gold.Chemscore.Lipo>
69.1666

> <Gold.Chemscore.Internal_Hbond>
0.0000

> <Gold.Chemscore.DEClash>
0.0329

> <Gold.Chemscore.DEInternal>
1.2343

> <Gold.Chemscore.Rot>
1.5243

> <Gold.Chemscore.Internal.Correction>
   9.000000E+99

> <Gold.Chemscore.Hbonds>
donor molecule, donor type, donor heavy atom, donor atom, acceptor molecule, acceptor atom, score
      P1  H  6931  6943       L1    13  0.82
      P1  H  6934  6947       L1    13  0.57
      P1  H  7989  7998       L1     4  0.80
      P1  H  7997  8008       L1     3  0.96

> <Gold.Chemscore.Hbond.Weighted>
-11.4980

> <Gold.Chemscore.Metal.Weighted>
-0.0000

> <Gold.Chemscore.Lipo.Weighted>
-8.0925

> <Gold.Chemscore.Internal_Hbond.Weighted>
0.0000

> <Gold.Chemscore.DEClash.Weighted>
0.0329

> <Gold.Chemscore.DEInternal.Weighted>
1.2343

> <Gold.Chemscore.Rot.Weighted>
3.9022

> <Gold.Chemscore.Internal.Correction.Weighted>
   9.000000E+99

> <Gold.Protein.RotatedTorsions>
[ 6907 6896 6895 6894 ] final -152.27 input  -60.11 | X-H torsion
[ 7974 7965 7964 7962 ] final   42.18 input  175.53 | X-H torsion
[ 8008 7997 7996 7995 ] final  -55.25 input   59.86 | X-H torsion
[ 10167 10162 10161 10158 ] final  146.20 input  -65.29 | X-H torsion
[ 10718 10713 10712 10709 ] final  128.37 input   66.30 | X-H torsion
[ 10763 10752 10751 10750 ] final   56.71 input  -60.55 | X-H torsion
[ 11005 11000 10999 10996 ] final  -76.32 input  -57.11 | X-H torsion

> <Gold.Protein.ActiveResidues>
 VAL166  LYS551  ARG553  GLY616  TRP617  ASP618  TYR619  PRO620  LYS621  CYS622 
 ASP623  PHE694  ASN695  SER759  ASP760  ASP761  ALA762  ILE779  LEU786  VAL792 
 PHE793  MET794  SER795  GLU796  ALA797  LYS798  CYS799  TRP800  GLU811  SER814 

> <Gold.Protein.RotatedAtoms>
  151.2253  133.4480  159.2601 H   0  0  0  0  0  0  0  0  0  0  0  0  # atno 6907 bound_to 6896
  151.0846  134.9879  159.8383 H   0  0  0  0  0  0  0  0  0  0  0  0  # atno 6908 bound_to 6896
  152.5428  134.2190  159.8833 H   0  0  0  0  0  0  0  0  0  0  0  0  # atno 6909 bound_to 6896
  146.0761  139.5329  142.9566 H   0  0  0  0  0  0  0  0  0  0  0  0  # atno 7974 bound_to 7965
  154.4189  140.1157  156.5447 H   0  0  0  0  0  0  0  0  0  0  0  0  # atno 8008 bound_to 7997
  155.6472  140.3496  155.4716 H   0  0  0  0  0  0  0  0  0  0  0  0  # atno 8009 bound_to 7997
  155.9823  140.1162  157.0705 H   0  0  0  0  0  0  0  0  0  0  0  0  # atno 8010 bound_to 7997
  139.4911  144.5847  151.6802 H   0  0  0  0  0  0  0  0  0  0  0  0  # atno 10167 bound_to 10162
  157.5250  131.1098  150.9096 H   0  0  0  0  0  0  0  0  0  0  0  0  # atno 10718 bound_to 10713
  152.9836  135.5667  154.5272 H   0  0  0  0  0  0  0  0  0  0  0  0  # atno 10763 bound_to 10752
  154.4750  135.2786  155.1616 H   0  0  0  0  0  0  0  0  0  0  0  0  # atno 10764 bound_to 10752
  154.3148  135.6281  153.5535 H   0  0  0  0  0  0  0  0  0  0  0  0  # atno 10765 bound_to 10752
  141.1653  133.6979  156.7651 H   0  0  0  0  0  0  0  0  0  0  0  0  # atno 11005 bound_to 11000
  145.6303  141.0305  143.1867 LP  0  0  0  0  0  0  0  0  0  0  0  0  # atno 17320 bound_to 7965
  144.7263  139.7866  143.7364 LP  0  0  0  0  0  0  0  0  0  0  0  0  # atno 17321 bound_to 7965
  140.5460  144.0502  150.6107 LP  0  0  0  0  0  0  0  0  0  0  0  0  # atno 17342 bound_to 10162
  140.3540  143.2946  152.0456 LP  0  0  0  0  0  0  0  0  0  0  0  0  # atno 17343 bound_to 10162
  156.9694  130.5485  149.5290 LP  0  0  0  0  0  0  0  0  0  0  0  0  # atno 17370 bound_to 10713
  156.0381  130.5466  150.8703 LP  0  0  0  0  0  0  0  0  0  0  0  0  # atno 17371 bound_to 10713
  140.2505  134.8544  157.3663 LP  0  0  0  0  0  0  0  0  0  0  0  0  # atno 17394 bound_to 11000
  140.1707  134.4612  155.7833 LP  0  0  0  0  0  0  0  0  0  0  0  0  # atno 17395 bound_to 11000

$$$$
