AV-unprocessed.smi:1165|AV-procd|sdf|4929|dock5
  -GOLD-   22720 3513D 1   1.00000     0.00000
 Structure written by MMmdl.
 41 42  0  0  0  0  0  0  0  0  1 V2000
  153.6446  141.2534  160.4624 C   0  0  0  0  0  0  0  0  0  0  0  0
  152.9176  141.3863  159.1199 C   0  0  1  0  0  0  0  0  0  0  0  0
  151.9170  140.2357  158.8900 C   0  0  0  0  0  0  0  0  0  0  0  0
  151.1255  140.4581  157.6686 N   0  0  0  0  0  0  0  0  0  0  0  0
  151.6176  139.6900  156.1886 S   0  0  0  0  0  0  0  0  0  0  0  0
  151.0177  140.4064  155.0525 O   0  0  0  0  0  0  0  0  0  0  0  0
  153.0657  139.4375  156.2400 O   0  0  0  0  0  0  0  0  0  0  0  0
  150.8070  138.1808  156.3556 N   0  0  0  0  0  0  0  0  0  0  0  0
  150.8877  137.2162  155.2639 C   0  0  0  0  0  0  0  0  0  0  0  0
  149.7299  136.2151  155.3614 C   0  0  0  0  0  0  0  0  0  0  0  0
  150.2175  134.7965  155.5774 C   0  0  0  0  0  0  0  0  0  0  0  0
  151.0624  134.4808  156.6614 C   0  0  0  0  0  0  0  0  0  0  0  0
  151.4906  133.1491  156.8221 C   0  0  0  0  0  0  0  0  0  0  0  0
  151.0548  132.1874  155.8888 C   0  0  0  0  0  0  0  0  0  0  0  0
  150.2469  132.4787  154.8463 N   0  0  0  0  0  0  0  0  0  0  0  0
  149.8408  133.7582  154.6993 C   0  0  0  0  0  0  0  0  0  0  0  0
  150.5203  141.7990  157.6107 C   0  0  0  0  0  0  0  0  0  0  0  0
  151.5742  142.8923  157.8779 C   0  0  1  0  0  0  0  0  0  0  0  0
  150.9475  144.2884  157.9554 C   0  0  0  0  0  0  0  0  0  0  0  0
  152.2243  142.6286  159.1153 O   0  0  0  0  0  0  0  0  0  0  0  0
  154.2075  140.3212  160.5129 H   0  0  0  0  0  0  0  0  0  0  0  0
  152.9409  141.2653  161.2954 H   0  0  0  0  0  0  0  0  0  0  0  0
  154.3471  142.0744  160.6082 H   0  0  0  0  0  0  0  0  0  0  0  0
  153.6678  141.3937  158.3285 H   0  0  0  0  0  0  0  0  0  0  0  0
  152.4331  139.2772  158.8392 H   0  0  0  0  0  0  0  0  0  0  0  0
  151.2295  140.1730  159.7344 H   0  0  0  0  0  0  0  0  0  0  0  0
  149.8603  138.2918  156.7175 H   0  0  0  0  0  0  0  0  0  0  0  0
  150.8564  137.7496  154.3132 H   0  0  0  0  0  0  0  0  0  0  0  0
  151.8459  136.6978  155.3164 H   0  0  0  0  0  0  0  0  0  0  0  0
  149.0671  136.4885  156.1836 H   0  0  0  0  0  0  0  0  0  0  0  0
  149.1255  136.2511  154.4539 H   0  0  0  0  0  0  0  0  0  0  0  0
  151.3778  135.2443  157.3573 H   0  0  0  0  0  0  0  0  0  0  0  0
  152.1379  132.8707  157.6407 H   0  0  0  0  0  0  0  0  0  0  0  0
  151.3638  131.1567  155.9820 H   0  0  0  0  0  0  0  0  0  0  0  0
  149.1970  133.9583  153.8554 H   0  0  0  0  0  0  0  0  0  0  0  0
  150.0345  141.9553  156.6477 H   0  0  0  0  0  0  0  0  0  0  0  0
  149.7360  141.8525  158.3667 H   0  0  0  0  0  0  0  0  0  0  0  0
  152.3167  142.9011  157.0795 H   0  0  0  0  0  0  0  0  0  0  0  0
  150.4455  144.5455  157.0223 H   0  0  0  0  0  0  0  0  0  0  0  0
  151.7081  145.0468  158.1431 H   0  0  0  0  0  0  0  0  0  0  0  0
  150.2129  144.3481  158.7588 H   0  0  0  0  0  0  0  0  0  0  0  0
  1  2  1  0  0  0  0
  1 21  1  0  0  0  0
  1 22  1  0  0  0  0
  1 23  1  0  0  0  0
  2 20  1  0  0  0  0
  2  3  1  0  0  0  0
  2 24  1  0  0  0  0
  3  4  1  0  0  0  0
  3 25  1  0  0  0  0
  3 26  1  0  0  0  0
  4  5  1  0  0  0  0
  4 17  1  0  0  0  0
  5  6  2  0  0  0  0
  5  7  2  0  0  0  0
  5  8  1  0  0  0  0
  8  9  1  0  0  0  0
  8 27  1  0  0  0  0
  9 10  1  0  0  0  0
  9 28  1  0  0  0  0
  9 29  1  0  0  0  0
 10 11  1  0  0  0  0
 10 30  1  0  0  0  0
 10 31  1  0  0  0  0
 11 16  1  0  0  0  0
 11 12  2  0  0  0  0
 12 13  1  0  0  0  0
 12 32  1  0  0  0  0
 13 14  2  0  0  0  0
 13 33  1  0  0  0  0
 14 15  1  0  0  0  0
 14 34  1  0  0  0  0
 15 16  2  0  0  0  0
 16 35  1  0  0  0  0
 17 18  1  0  0  0  0
 17 36  1  0  0  0  0
 17 37  1  0  0  0  0
 18 19  1  0  0  0  0
 18 20  1  0  0  0  0
 18 38  1  0  0  0  0
 19 39  1  0  0  0  0
 19 40  1  0  0  0  0
 19 41  1  0  0  0  0
M  END
> <s_m_source_file>
AV-unprocessed.smi

> <i_m_source_file_index>
1165

> <i_lp_mmshare_version>
43012

> <i_f3d_flags>
0

> <s_epik_input>
W0NIM11bQ0BASF0xW0NIMl1OKFtDSDJdW0NASF0oTzEpW0NIM10pUyg9TykoPU8pW05IXVtDSDJdW0NIMl1jMltjSF1bY0hdW2NIXW5bY0hdMg==

> <s_epik_cmdline>
J2VwaWtfcHl0aG9uJywgJy1waCcsICc3LjAnLCAnLXRuJywgJzgnLCAnLW1hJywgJzIwMCcsICctbWV0YWxfYmluZGluZycsICctaW1hZScsICc8aW5maWxlLm1hZT4nLCAnLW9tYWUnLCAnPG91dGZpbGUubWFlPic=

> <r_epik_Ionization_Penalty>
0.0861056

> <r_epik_Ionization_Penalty_Charging>
0

> <r_epik_Ionization_Penalty_Neutral>
0.0861056

> <r_epik_State_Penalty>
0.0574425

> <r_epik_Charging_Adjusted_Penalty>
0.0574425

> <i_epik_Tot_Q>
0

> <i_epik_Tot_abs_Q>
0

> <r_epik_Metal_State_Penalty>
0.317425

> <b_epik_Metal_Only>
0

> <s_lp_Force_Field>
OPLS_2005

> <r_lp_Energy>
3.52917

> <b_lp_Chiralities_Consistent>
1

> <s_lp_Variant>
AV-unprocessed.smi:1165-2

> <Gold.Version>
5.8.1

> <Gold.Id.Protein>
6NUR|6NUR_protein|mol2

> <Gold.PLP.Fitness>
42.6606

> <Gold.PLP.PLP>
-34.7526

> <Gold.PLP.part.hbond>
-2.0000

> <Gold.PLP.part.metal>
0.0000

> <Gold.PLP.part.buried>
-6.1010

> <Gold.PLP.part.nonpolar>
-27.1787

> <Gold.PLP.part.repulsive>
0.1228

> <Gold.PLP.ligand.clash>
0.0000

> <Gold.PLP.ligand.torsion>
1.5831

> <Gold.PLP.Chemscore.Hbond>
1.9920

> <Gold.PLP.Chemscore.CHOScore>
0.9972

> <Gold.PLP.Chemscore.Metal>
0.0000

> <Gold.Chemscore.Hbonds>
donor molecule, donor type, donor heavy atom, donor atom, acceptor molecule, acceptor atom, score
      P1  H  7989  7998       L1     6  1.00
      P1  H  7997  8010       L1     7  0.80

> <Gold.PLP.Chemscore.Internal.Correction>
2.1065

> <Gold.Rescore>
     Score         DG    S(hbond)    S(metal)    S(lipo)     H(rot)  DE(clash)    DE(int)     intcor
     16.46     -18.15       1.99        0.00      84.62       1.52       0.06       1.62       ----

> <Gold.Chemscore.Fitness>
16.4610

> <Gold.Chemscore.DG>
-18.1454

> <Gold.Chemscore.ZeroCoef>
-5.4800

> <Gold.Chemscore.Hbond>
1.9907

> <Gold.Chemscore.Metal>
0.0000

> <Gold.Chemscore.Lipo>
84.6202

> <Gold.Chemscore.Internal_Hbond>
0.0000

> <Gold.Chemscore.DEClash>
0.0614

> <Gold.Chemscore.DEInternal>
1.6230

> <Gold.Chemscore.Rot>
1.5172

> <Gold.Chemscore.Internal.Correction>
   9.000000E+99

> <Gold.Chemscore.Hbonds>
donor molecule, donor type, donor heavy atom, donor atom, acceptor molecule, acceptor atom, score
      P1  H  7989  7998       L1     6  0.97
      P1  H  7997  8010       L1     7  0.79

> <Gold.Chemscore.Hbond.Weighted>
-6.6490

> <Gold.Chemscore.Metal.Weighted>
-0.0000

> <Gold.Chemscore.Lipo.Weighted>
-9.9006

> <Gold.Chemscore.Internal_Hbond.Weighted>
0.0000

> <Gold.Chemscore.DEClash.Weighted>
0.0614

> <Gold.Chemscore.DEInternal.Weighted>
1.6230

> <Gold.Chemscore.Rot.Weighted>
3.8841

> <Gold.Chemscore.Internal.Correction.Weighted>
   9.000000E+99

> <Gold.Protein.RotatedTorsions>
[ 6907 6896 6895 6894 ] final  163.11 input  -60.11 | X-H torsion
[ 7974 7965 7964 7962 ] final  112.12 input  175.53 | X-H torsion
[ 8008 7997 7996 7995 ] final   81.26 input   59.86 | X-H torsion
[ 10167 10162 10161 10158 ] final -175.37 input  -65.29 | X-H torsion
[ 10718 10713 10712 10709 ] final   27.56 input   66.30 | X-H torsion
[ 10763 10752 10751 10750 ] final  -85.82 input  -60.55 | X-H torsion
[ 11005 11000 10999 10996 ] final   31.42 input  -57.11 | X-H torsion

> <Gold.Protein.ActiveResidues>
 VAL166  LYS551  ARG553  GLY616  TRP617  ASP618  TYR619  PRO620  LYS621  CYS622 
 ASP623  PHE694  ASN695  SER759  ASP760  ASP761  ALA762  ILE779  LEU786  VAL792 
 PHE793  MET794  SER795  GLU796  ALA797  LYS798  CYS799  TRP800  GLU811  SER814 

> <Gold.Protein.RotatedAtoms>
  151.9301  133.3609  159.3927 H   0  0  0  0  0  0  0  0  0  0  0  0  # atno 6907 bound_to 6896
  150.7019  134.4546  159.5361 H   0  0  0  0  0  0  0  0  0  0  0  0  # atno 6908 bound_to 6896
  152.2185  134.8435  160.0539 H   0  0  0  0  0  0  0  0  0  0  0  0  # atno 6909 bound_to 6896
  145.2335  139.2809  143.4155 H   0  0  0  0  0  0  0  0  0  0  0  0  # atno 7974 bound_to 7965
  155.8947  140.3437  155.5982 H   0  0  0  0  0  0  0  0  0  0  0  0  # atno 8008 bound_to 7997
  155.7569  140.0827  157.2193 H   0  0  0  0  0  0  0  0  0  0  0  0  # atno 8009 bound_to 7997
  154.4037  140.1543  156.2776 H   0  0  0  0  0  0  0  0  0  0  0  0  # atno 8010 bound_to 7997
  139.5584  144.1930  152.1199 H   0  0  0  0  0  0  0  0  0  0  0  0  # atno 10167 bound_to 10162
  157.2218  130.6982  149.6273 H   0  0  0  0  0  0  0  0  0  0  0  0  # atno 10718 bound_to 10713
  154.6154  135.5471  153.7518 H   0  0  0  0  0  0  0  0  0  0  0  0  # atno 10763 bound_to 10752
  153.0214  135.6400  154.1518 H   0  0  0  0  0  0  0  0  0  0  0  0  # atno 10764 bound_to 10752
  154.1454  135.2906  155.3129 H   0  0  0  0  0  0  0  0  0  0  0  0  # atno 10765 bound_to 10752
  140.2840  134.2940  155.7793 H   0  0  0  0  0  0  0  0  0  0  0  0  # atno 11005 bound_to 11000
  146.3347  140.2677  142.8604 LP  0  0  0  0  0  0  0  0  0  0  0  0  # atno 17320 bound_to 7965
  144.9654  140.8317  143.5488 LP  0  0  0  0  0  0  0  0  0  0  0  0  # atno 17321 bound_to 7965
  140.1439  144.5177  150.6727 LP  0  0  0  0  0  0  0  0  0  0  0  0  # atno 17342 bound_to 10162
  140.6861  143.2351  151.5257 LP  0  0  0  0  0  0  0  0  0  0  0  0  # atno 17343 bound_to 10162
  155.9682  130.4517  150.5747 LP  0  0  0  0  0  0  0  0  0  0  0  0  # atno 17370 bound_to 10713
  157.3568  131.0743  151.1669 LP  0  0  0  0  0  0  0  0  0  0  0  0  # atno 17371 bound_to 10713
  141.2158  133.7543  156.9524 LP  0  0  0  0  0  0  0  0  0  0  0  0  # atno 17394 bound_to 11000
  140.1256  134.9389  157.2266 LP  0  0  0  0  0  0  0  0  0  0  0  0  # atno 17395 bound_to 11000

$$$$
