AV-unprocessed.smi:722|AV-procd|sdf|3504|dock9
  -GOLD-   22720 0503D 1   1.00000     0.00000
 Structure written by MMmdl.
 38 39  0  0  0  0  0  0  0  0  1 V2000
  149.0345  137.8060  156.7968 C   0  0  0  0  0  0  0  0  0  0  0  0
  150.1160  137.7067  157.8234 C   0  0  0  0  0  0  0  0  0  0  0  0
  150.1428  136.7735  158.7778 N   0  0  0  0  0  0  0  0  0  0  0  0
  151.2820  137.0304  159.5085 N   0  0  0  0  0  0  0  0  0  0  0  0
  151.8437  138.0945  158.9304 C   0  0  0  0  0  0  0  0  0  0  0  0
  153.3322  138.8376  159.5050 S   0  0  0  0  0  0  0  0  0  0  0  0
  152.6704  140.5065  159.7552 C   0  0  0  0  0  0  0  0  0  0  0  0
  153.6973  141.4227  160.4329 C   0  0  0  0  0  0  0  0  0  0  0  0
  153.3968  142.9180  160.2323 C   0  0  0  0  0  0  0  0  0  0  0  0
  152.3436  143.4875  161.1899 C   0  0  0  0  0  0  0  0  0  0  0  0
  151.8040  144.7474  160.5015 C   0  0  0  0  0  0  0  0  0  0  0  0
  152.1732  144.6221  159.0157 C   0  0  0  0  0  0  0  0  0  0  0  0
  152.8201  143.2437  158.8531 C   0  0  0  0  0  0  0  0  0  0  0  0
  151.1582  138.5622  157.8670 N   0  0  0  0  0  0  0  0  0  0  0  0
  151.4588  139.6994  157.0062 C   0  0  0  0  0  0  0  0  0  0  0  0
  151.6692  139.2580  155.5556 C   0  0  0  0  0  0  0  0  0  0  0  0
  152.6494  138.3821  155.3208 N   0  0  0  0  0  0  0  0  0  0  0  0
  150.9615  139.7075  154.6567 O   0  0  0  0  0  0  0  0  0  0  0  0
  148.2539  137.0704  156.9926 H   0  0  0  0  0  0  0  0  0  0  0  0
  149.4425  137.6211  155.8029 H   0  0  0  0  0  0  0  0  0  0  0  0
  148.5845  138.7987  156.8156 H   0  0  0  0  0  0  0  0  0  0  0  0
  152.3847  140.9139  158.7854 H   0  0  0  0  0  0  0  0  0  0  0  0
  151.7617  140.4410  160.3543 H   0  0  0  0  0  0  0  0  0  0  0  0
  153.7171  141.2022  161.5008 H   0  0  0  0  0  0  0  0  0  0  0  0
  154.6952  141.1951  160.0556 H   0  0  0  0  0  0  0  0  0  0  0  0
  154.3199  143.4875  160.3542 H   0  0  0  0  0  0  0  0  0  0  0  0
  151.5314  142.7705  161.3178 H   0  0  0  0  0  0  0  0  0  0  0  0
  152.7503  143.7012  162.1788 H   0  0  0  0  0  0  0  0  0  0  0  0
  150.7265  144.8389  160.6434 H   0  0  0  0  0  0  0  0  0  0  0  0
  152.2651  145.6407  160.9248 H   0  0  0  0  0  0  0  0  0  0  0  0
  151.3070  144.7407  158.3642 H   0  0  0  0  0  0  0  0  0  0  0  0
  152.8896  145.4007  158.7509 H   0  0  0  0  0  0  0  0  0  0  0  0
  153.5774  143.2292  158.0685 H   0  0  0  0  0  0  0  0  0  0  0  0
  152.0550  142.5126  158.5877 H   0  0  0  0  0  0  0  0  0  0  0  0
  150.6478  140.4254  157.0790 H   0  0  0  0  0  0  0  0  0  0  0  0
  152.3570  140.2016  157.3652 H   0  0  0  0  0  0  0  0  0  0  0  0
  152.8238  138.0585  154.3801 H   0  0  0  0  0  0  0  0  0  0  0  0
  153.2118  138.0426  156.0877 H   0  0  0  0  0  0  0  0  0  0  0  0
  1  2  1  0  0  0  0
  1 19  1  0  0  0  0
  1 20  1  0  0  0  0
  1 21  1  0  0  0  0
  2 14  1  0  0  0  0
  2  3  2  0  0  0  0
  3  4  1  0  0  0  0
  4  5  2  0  0  0  0
  5  6  1  0  0  0  0
  5 14  1  0  0  0  0
  6  7  1  0  0  0  0
  7  8  1  0  0  0  0
  7 22  1  0  0  0  0
  7 23  1  0  0  0  0
  8  9  1  0  0  0  0
  8 24  1  0  0  0  0
  8 25  1  0  0  0  0
  9 13  1  0  0  0  0
  9 10  1  0  0  0  0
  9 26  1  0  0  0  0
 10 11  1  0  0  0  0
 10 27  1  0  0  0  0
 10 28  1  0  0  0  0
 11 12  1  0  0  0  0
 11 29  1  0  0  0  0
 11 30  1  0  0  0  0
 12 13  1  0  0  0  0
 12 31  1  0  0  0  0
 12 32  1  0  0  0  0
 13 33  1  0  0  0  0
 13 34  1  0  0  0  0
 14 15  1  0  0  0  0
 15 16  1  0  0  0  0
 15 35  1  0  0  0  0
 15 36  1  0  0  0  0
 16 17  1  0  0  0  0
 16 18  2  0  0  0  0
 17 37  1  0  0  0  0
 17 38  1  0  0  0  0
M  END
> <s_m_source_file>
AV-unprocessed.smi

> <i_m_source_file_index>
722

> <i_lp_mmshare_version>
43012

> <i_f3d_flags>
0

> <s_epik_input>
W0NIM11jMW5uYyhuMVtDSDJdQyg9TylbTkgyXSlTW0NIMl1bQ0gyXVtDSF0yW0NIMl1bQ0gyXVtDSDJdW0NIMl0y

> <s_epik_cmdline>
J2VwaWtfcHl0aG9uJywgJy1waCcsICc3LjAnLCAnLXRuJywgJzgnLCAnLW1hJywgJzIwMCcsICctbWV0YWxfYmluZGluZycsICctaW1hZScsICc8aW5maWxlLm1hZT4nLCAnLW9tYWUnLCAnPG91dGZpbGUubWFlPic=

> <r_lp_tautomer_probability>
1

> <r_epik_Ionization_Penalty>
8.38536e-06

> <r_epik_Ionization_Penalty_Charging>
0

> <r_epik_Ionization_Penalty_Neutral>
8.38536e-06

> <r_epik_State_Penalty>
-0

> <r_epik_Charging_Adjusted_Penalty>
0

> <i_epik_Tot_Q>
0

> <i_epik_Tot_abs_Q>
0

> <r_epik_Metal_State_Penalty>
-0

> <b_epik_Metal_Only>
0

> <s_lp_Force_Field>
OPLS_2005

> <r_lp_Energy>
19.4661

> <b_lp_Chiralities_Consistent>
1

> <s_lp_Variant>
AV-unprocessed.smi:722-1

> <Gold.Version>
5.8.1

> <Gold.Id.Protein>
6NUR|6NUR_protein|mol2

> <Gold.PLP.Fitness>
44.4407

> <Gold.PLP.PLP>
-39.1913

> <Gold.PLP.part.hbond>
-2.3706

> <Gold.PLP.part.metal>
0.0000

> <Gold.PLP.part.buried>
-6.6849

> <Gold.PLP.part.nonpolar>
-30.6655

> <Gold.PLP.part.repulsive>
0.2881

> <Gold.PLP.ligand.clash>
0.0000

> <Gold.PLP.ligand.torsion>
0.3524

> <Gold.PLP.Chemscore.Hbond>
1.9760

> <Gold.PLP.Chemscore.CHOScore>
0.0000

> <Gold.PLP.Chemscore.Metal>
0.0000

> <Gold.Chemscore.Hbonds>
donor molecule, donor type, donor heavy atom, donor atom, acceptor molecule, acceptor atom, score
      P1  H  6896  6908       L1     4  0.89
      P1  H  7989  7998       L1    18  1.00

> <Gold.PLP.Chemscore.Internal.Correction>
0.0262

> <Gold.Rescore>
     Score         DG    S(hbond)    S(metal)    S(lipo)     H(rot)  DE(clash)    DE(int)     intcor
     15.00     -15.37       1.90        0.00      88.33       2.66       0.03       0.34       ----

> <Gold.Chemscore.Fitness>
15.0004

> <Gold.Chemscore.DG>
-15.3668

> <Gold.Chemscore.ZeroCoef>
-5.4800

> <Gold.Chemscore.Hbond>
1.9034

> <Gold.Chemscore.Metal>
0.0000

> <Gold.Chemscore.Lipo>
88.3311

> <Gold.Chemscore.Internal_Hbond>
0.0000

> <Gold.Chemscore.DEClash>
0.0270

> <Gold.Chemscore.DEInternal>
0.3394

> <Gold.Chemscore.Rot>
2.6583

> <Gold.Chemscore.Internal.Correction>
   9.000000E+99

> <Gold.Chemscore.Hbonds>
donor molecule, donor type, donor heavy atom, donor atom, acceptor molecule, acceptor atom, score
      P1  H  6896  6908       L1     4  0.16
      P1  H  7989  7998       L1    18  0.98

> <Gold.Chemscore.Hbond.Weighted>
-6.3572

> <Gold.Chemscore.Metal.Weighted>
-0.0000

> <Gold.Chemscore.Lipo.Weighted>
-10.3347

> <Gold.Chemscore.Internal_Hbond.Weighted>
0.0000

> <Gold.Chemscore.DEClash.Weighted>
0.0270

> <Gold.Chemscore.DEInternal.Weighted>
0.3394

> <Gold.Chemscore.Rot.Weighted>
6.8052

> <Gold.Chemscore.Internal.Correction.Weighted>
   9.000000E+99

> <Gold.Protein.RotatedTorsions>
[ 6907 6896 6895 6894 ] final -109.71 input  -60.11 | X-H torsion
[ 7974 7965 7964 7962 ] final  107.47 input  175.53 | X-H torsion
[ 8008 7997 7996 7995 ] final   56.75 input   59.86 | X-H torsion
[ 10167 10162 10161 10158 ] final  -45.50 input  -65.29 | X-H torsion
[ 10718 10713 10712 10709 ] final   30.71 input   66.30 | X-H torsion
[ 10763 10752 10751 10750 ] final -159.77 input  -60.55 | X-H torsion
[ 11005 11000 10999 10996 ] final   -1.78 input  -57.11 | X-H torsion

> <Gold.Protein.ActiveResidues>
 VAL166  LYS551  ARG553  GLY616  TRP617  ASP618  TYR619  PRO620  LYS621  CYS622 
 ASP623  PHE694  ASN695  SER759  ASP760  ASP761  ALA762  ILE779  LEU786  VAL792 
 PHE793  MET794  SER795  GLU796  ALA797  LYS798  CYS799  TRP800  GLU811  SER814 

> <Gold.Protein.RotatedAtoms>
  150.7579  133.9489  159.3479 H   0  0  0  0  0  0  0  0  0  0  0  0  # atno 6907 bound_to 6896
  151.7404  135.0853  160.0324 H   0  0  0  0  0  0  0  0  0  0  0  0  # atno 6908 bound_to 6896
  152.3532  133.6168  159.5996 H   0  0  0  0  0  0  0  0  0  0  0  0  # atno 6909 bound_to 6896
  145.2932  139.2593  143.3853 H   0  0  0  0  0  0  0  0  0  0  0  0  # atno 7974 bound_to 7965
  155.5225  140.3480  155.4409 H   0  0  0  0  0  0  0  0  0  0  0  0  # atno 8008 bound_to 7997
  156.0774  140.1378  156.9781 H   0  0  0  0  0  0  0  0  0  0  0  0  # atno 8009 bound_to 7997
  154.4561  140.0953  156.6736 H   0  0  0  0  0  0  0  0  0  0  0  0  # atno 8010 bound_to 7997
  140.6855  143.2877  151.3647 H   0  0  0  0  0  0  0  0  0  0  0  0  # atno 10167 bound_to 10162
  157.2631  130.7171  149.6464 H   0  0  0  0  0  0  0  0  0  0  0  0  # atno 10718 bound_to 10713
  154.7447  135.3077  154.8667 H   0  0  0  0  0  0  0  0  0  0  0  0  # atno 10763 bound_to 10752
  153.9471  135.6768  153.4748 H   0  0  0  0  0  0  0  0  0  0  0  0  # atno 10764 bound_to 10752
  153.1044  135.4896  154.8850 H   0  0  0  0  0  0  0  0  0  0  0  0  # atno 10765 bound_to 10752
  140.6511  133.9404  155.8380 H   0  0  0  0  0  0  0  0  0  0  0  0  # atno 11005 bound_to 11000
  146.3177  140.3429  142.8649 LP  0  0  0  0  0  0  0  0  0  0  0  0  # atno 17320 bound_to 7965
  144.9155  140.7807  143.5781 LP  0  0  0  0  0  0  0  0  0  0  0  0  # atno 17321 bound_to 7965
  139.6211  144.0905  152.2392 LP  0  0  0  0  0  0  0  0  0  0  0  0  # atno 17342 bound_to 10162
  140.0350  144.6052  150.7457 LP  0  0  0  0  0  0  0  0  0  0  0  0  # atno 17343 bound_to 10162
  155.9664  130.4391  150.5245 LP  0  0  0  0  0  0  0  0  0  0  0  0  # atno 17370 bound_to 10713
  157.3154  131.0672  151.1971 LP  0  0  0  0  0  0  0  0  0  0  0  0  # atno 17371 bound_to 10713
  141.0536  134.0449  157.3752 LP  0  0  0  0  0  0  0  0  0  0  0  0  # atno 17394 bound_to 11000
  139.9045  135.0175  156.7425 LP  0  0  0  0  0  0  0  0  0  0  0  0  # atno 17395 bound_to 11000

$$$$
