#       Name:                AV-unprocessed.smi:1269
#       Creating user name   scv26
#       Creation time:       Fri Mar 27 04:45:55 2020


#       File generated by GOLD software.
#

@<TRIPOS>MOLECULE
AV-unprocessed.smi:1269
    51    52     1
SMALL
NO_CHARGES


@<TRIPOS>ATOM
      1 ****        -6.7870   2.4999  -1.3286 C.3            1 S1                 0.0000
      2 ****        -5.5729   2.9683  -0.7518 O.3            1 S1                 0.0000
      3 ****        -4.4391   2.1950  -0.8940 C.ar           1 S1                 0.0000
      4 ****        -3.2372   2.6477  -0.3150 C.ar           1 S1                 0.0000
      5 ****        -2.0758   1.8638  -0.4527 C.ar           1 S1                 0.0000
      6 ****        -2.1510   0.6480  -1.1751 C.ar           1 S1                 0.0000
      7 ****        -1.0634  -0.2463  -1.3778 N.am           1 S1                 0.0000
      8 ****         0.2477  -0.0553  -1.1520 C.2            1 S1                 0.0000
      9 ****         0.7598   0.9862  -0.7441 O.2            1 S1                 0.0000
     10 ****         0.9515  -1.1640  -1.4258 N.am           1 S1                 0.0000
     11 ****         2.4033  -1.3141  -1.3074 C.3            1 S1                 0.0000
     12 ****         2.9047  -2.2326  -2.4302 C.3            1 S1                 0.0000
     13 ****         2.8015  -1.8593   0.0839 C.3            1 S1                 0.0000
     14 ****         2.3509  -0.9899   1.2003 N.4            1 S1                 1.0000
     15 ****         2.1716  -1.7228   2.4752 C.3            1 S1                 0.0000
     16 ****         1.6221  -0.7775   3.5574 C.3            1 S1                 0.0000
     17 ****         2.4973   0.3332   3.7138 O.3            1 S1                 0.0000
     18 ****         2.6204   1.0902   2.5154 C.3            1 S1                 0.0000
     19 ****         3.2076   0.2030   1.4058 C.3            1 S1                 0.0000
     20 ****        -3.4042   0.2831  -1.7101 C.ar           1 S1                 0.0000
     21 ****        -4.5214   1.0285  -1.5800 N.ar           1 S1                 0.0000
     22 ****        -7.5810   3.2196  -1.1300 H              1 S1                 0.0000
     23 ****        -7.0908   1.5447  -0.8978 H              1 S1                 0.0000
     24 ****        -6.7002   2.3933  -2.4110 H              1 S1                 0.0000
     25 ****        -3.2074   3.5799   0.2296 H              1 S1                 0.0000
     26 ****        -1.1650   2.2109   0.0076 H              1 S1                 0.0000
     27 ****        -1.3171  -1.1431  -1.7663 H              1 S1                 0.0000
     28 ****         0.4431  -1.9705  -1.7591 H              1 S1                 0.0000
     29 ****         2.8771  -0.3437  -1.4615 H              1 S1                 0.0000
     30 ****         3.9893  -2.3393  -2.3947 H              1 S1                 0.0000
     31 ****         2.6476  -1.8312  -3.4112 H              1 S1                 0.0000
     32 ****         2.4702  -3.2300  -2.3540 H              1 S1                 0.0000
     33 ****         2.3541  -2.8480   0.1997 H              1 S1                 0.0000
     34 ****         3.8808  -2.0069   0.1481 H              1 S1                 0.0000
     35 ****         1.4804  -2.5544   2.3324 H              1 S1                 0.0000
     36 ****         3.1256  -2.1464   2.7930 H              1 S1                 0.0000
     37 ****         0.6197  -0.4316   3.2994 H              1 S1                 0.0000
     38 ****         1.5425  -1.3018   4.5099 H              1 S1                 0.0000
     39 ****         1.6488   1.4904   2.2201 H              1 S1                 0.0000
     40 ****         3.2741   1.9429   2.7003 H              1 S1                 0.0000
     41 ****         4.2180  -0.1104   1.6733 H              1 S1                 0.0000
     42 ****         3.2862   0.7798   0.4848 H              1 S1                 0.0000
     43 ****        -3.5161  -0.6386  -2.2627 H              1 S1                 0.0000
     44 ****         1.4354  -0.6501   0.9411 H              1 S1                 0.0000
     45 ****        -5.7346   3.0789   0.2289 LP             1 S1                 0.0000
     46 ****        -5.3761   3.8598  -1.1598 LP             1 S1                 0.0000
     47 ****         0.1870   1.7830  -0.5516 LP             1 S1                 0.0000
     48 ****         1.7488   1.0360  -0.6049 LP             1 S1                 0.0000
     49 ****         3.4014  -0.0033   3.9771 LP             1 S1                 0.0000
     50 ****         2.1395   0.9266   4.4348 LP             1 S1                 0.0000
     51 ****        -5.3877   0.7283  -1.9792 LP             1 S1                 0.0000
@<TRIPOS>BOND
    1    1    2 1     
    2    1   22 1     
    3    1   23 1     
    4    1   24 1     
    5    2    3 1     
    6    3   21 ar    
    7    3    4 ar    
    8    4    5 ar    
    9    4   25 1     
   10    5    6 ar    
   11    5   26 1     
   12    6    7 1     
   13    6   20 ar    
   14    7    8 am    
   15    7   27 1     
   16    8    9 2     
   17    8   10 am    
   18   10   11 1     
   19   10   28 1     
   20   11   12 1     
   21   11   13 1     
   22   11   29 1     
   23   12   30 1     
   24   12   31 1     
   25   12   32 1     
   26   13   14 1     
   27   13   33 1     
   28   13   34 1     
   29   14   19 1     
   30   14   15 1     
   31   14   44 1     
   32   15   16 1     
   33   15   35 1     
   34   15   36 1     
   35   16   17 1     
   36   16   37 1     
   37   16   38 1     
   38   17   18 1     
   39   18   19 1     
   40   18   39 1     
   41   18   40 1     
   42   19   41 1     
   43   19   42 1     
   44   20   21 ar    
   45   20   43 1     
   46    2   45 1     
   47    2   46 1     
   48    9   47 1     
   49    9   48 1     
   50   17   49 1     
   51   17   50 1     
   52   21   51 1     
@<TRIPOS>SUBSTRUCTURE
      1 S1             1
@<TRIPOS>SET
LONE_PAIRS      STATIC     ATOMS    <user>   **** ""
7 45 46 47 48 49 50 51
DONOR_HYDROGENS      STATIC     ATOMS    <user>   **** ""
3 27 28 44
ATOM$BLUE        STATIC     ATOMS    COLORGROUP SYSTEM
7 45 46 47 48 49 50 51
ATOM$RED        STATIC     ATOMS    COLORGROUP SYSTEM
3 27 28 44
