AV-unprocessed.smi:2768|AV-procd|sdf|10651|dock3
  -GOLD-   2272015103D 1   1.00000     0.00000
 Structure written by MMmdl.
 35 36  0  0  0  0  0  0  0  0  1 V2000
  152.5600  139.8937  155.1412 O   0  0  0  0  0  0  0  0  0  0  0  0
  151.4398  139.8108  155.6463 C   0  0  0  0  0  0  0  0  0  0  0  0
  151.0646  140.5206  156.7234 N   0  0  0  0  0  0  0  0  0  0  0  0
  151.9120  141.4403  157.4793 C   0  0  1  0  0  0  0  0  0  0  0  0
  151.2387  142.8286  157.4470 C   0  0  0  0  0  0  0  0  0  0  0  0
  151.9424  143.8431  158.3592 C   0  0  0  0  0  0  0  0  0  0  0  0
  152.0152  143.3223  159.7997 C   0  0  0  0  0  0  0  0  0  0  0  0
  152.7421  141.9724  159.8470 C   0  0  0  0  0  0  0  0  0  0  0  0
  152.0759  140.9267  158.9319 C   0  0  2  0  0  0  0  0  0  0  0  0
  152.9019  139.7793  158.9457 O   0  0  0  0  0  0  0  0  0  0  0  0
  150.3964  138.8433  155.0683 C   0  0  0  0  0  0  0  0  0  0  0  0
  150.9771  138.1155  154.1115 F   0  0  0  0  0  0  0  0  0  0  0  0
  149.9870  138.0089  156.0268 F   0  0  0  0  0  0  0  0  0  0  0  0
  149.2033  139.6203  154.5155 C   0  0  0  0  0  0  0  0  0  0  0  0
  148.1372  138.9585  153.8636 C   0  0  0  0  0  0  0  0  0  0  0  0
  147.0728  139.7288  153.3569 C   0  0  0  0  0  0  0  0  0  0  0  0
  147.1102  141.1268  153.5164 C   0  0  0  0  0  0  0  0  0  0  0  0
  148.2155  141.6953  154.1787 C   0  0  0  0  0  0  0  0  0  0  0  0
  149.2409  140.9660  154.6675 N   0  0  0  0  0  0  0  0  0  0  0  0
  152.8962  141.5347  157.0157 H   0  0  0  0  0  0  0  0  0  0  0  0
  151.1009  140.6610  159.3433 H   0  0  0  0  0  0  0  0  0  0  0  0
  150.1242  140.3883  157.0669 H   0  0  0  0  0  0  0  0  0  0  0  0
  151.2192  143.2081  156.4247 H   0  0  0  0  0  0  0  0  0  0  0  0
  150.1972  142.7402  157.7604 H   0  0  0  0  0  0  0  0  0  0  0  0
  152.9484  144.0392  157.9858 H   0  0  0  0  0  0  0  0  0  0  0  0
  151.4116  144.7952  158.3346 H   0  0  0  0  0  0  0  0  0  0  0  0
  152.5321  144.0452  160.4313 H   0  0  0  0  0  0  0  0  0  0  0  0
  151.0092  143.2155  160.2071 H   0  0  0  0  0  0  0  0  0  0  0  0
  153.7798  142.1194  159.5433 H   0  0  0  0  0  0  0  0  0  0  0  0
  152.7713  141.6055  160.8737 H   0  0  0  0  0  0  0  0  0  0  0  0
  152.8814  139.4046  159.8134 H   0  0  0  0  0  0  0  0  0  0  0  0
  148.1310  137.8851  153.7465 H   0  0  0  0  0  0  0  0  0  0  0  0
  146.2432  139.2558  152.8529 H   0  0  0  0  0  0  0  0  0  0  0  0
  146.3118  141.7492  153.1399 H   0  0  0  0  0  0  0  0  0  0  0  0
  148.2783  142.7643  154.3186 H   0  0  0  0  0  0  0  0  0  0  0  0
  1  2  2  0  0  0  0
  2  3  1  0  0  0  0
  2 11  1  0  0  0  0
  3  4  1  0  0  0  0
  3 22  1  0  0  0  0
  4 20  1  0  0  0  0
  4  9  1  0  0  0  0
  4  5  1  0  0  0  0
  5  6  1  0  0  0  0
  5 23  1  0  0  0  0
  5 24  1  0  0  0  0
  6  7  1  0  0  0  0
  6 25  1  0  0  0  0
  6 26  1  0  0  0  0
  7  8  1  0  0  0  0
  7 27  1  0  0  0  0
  7 28  1  0  0  0  0
  8  9  1  0  0  0  0
  8 29  1  0  0  0  0
  8 30  1  0  0  0  0
  9 21  1  0  0  0  0
  9 10  1  0  0  0  0
 10 31  1  0  0  0  0
 11 12  1  0  0  0  0
 11 13  1  0  0  0  0
 11 14  1  0  0  0  0
 14 19  1  0  0  0  0
 14 15  2  0  0  0  0
 15 16  1  0  0  0  0
 15 32  1  0  0  0  0
 16 17  2  0  0  0  0
 16 33  1  0  0  0  0
 17 18  1  0  0  0  0
 17 34  1  0  0  0  0
 18 19  2  0  0  0  0
 18 35  1  0  0  0  0
M  END
> <s_m_source_file>
AV-unprocessed.smi

> <i_m_source_file_index>
2768

> <i_lp_mmshare_version>
43012

> <i_f3d_flags>
0

> <s_epik_input>
bjFbY0hdW2NIXVtjSF1bY0hdYzFDKEYpKEYpQyg9TylbTkhdW0NAQEhdMltDSDJdW0NIMl1bQ0gyXVtDSDJdW0NASF0yW09IXQ==

> <s_epik_cmdline>
J2VwaWtfcHl0aG9uJywgJy1waCcsICc3LjAnLCAnLXRuJywgJzgnLCAnLW1hJywgJzIwMCcsICctbWV0YWxfYmluZGluZycsICctaW1hZScsICc8aW5maWxlLm1hZT4nLCAnLW9tYWUnLCAnPG91dGZpbGUubWFlPic=

> <r_lp_tautomer_probability>
1

> <r_epik_Ionization_Penalty>
4.19456e-05

> <r_epik_Ionization_Penalty_Charging>
0

> <r_epik_Ionization_Penalty_Neutral>
4.19456e-05

> <r_epik_State_Penalty>
-0

> <r_epik_Charging_Adjusted_Penalty>
0

> <i_epik_Tot_Q>
0

> <i_epik_Tot_abs_Q>
0

> <r_epik_Metal_State_Penalty>
0.0354684

> <b_epik_Metal_Only>
0

> <s_lp_Force_Field>
OPLS_2005

> <r_lp_Energy>
17.5256

> <b_lp_Chiralities_Consistent>
1

> <s_lp_Variant>
AV-unprocessed.smi:2768-4

> <Gold.Version>
5.8.1

> <Gold.Id.Protein>
6NUR|6NUR_protein|mol2

> <Gold.PLP.Fitness>
46.6456

> <Gold.PLP.PLP>
-40.3510

> <Gold.PLP.part.hbond>
-2.0666

> <Gold.PLP.part.metal>
0.0000

> <Gold.PLP.part.buried>
-4.1196

> <Gold.PLP.part.nonpolar>
-33.0299

> <Gold.PLP.part.repulsive>
0.2317

> <Gold.PLP.ligand.clash>
0.0000

> <Gold.PLP.ligand.torsion>
0.1097

> <Gold.PLP.Chemscore.Hbond>
1.1671

> <Gold.PLP.Chemscore.CHOScore>
1.0000

> <Gold.PLP.Chemscore.Metal>
0.0000

> <Gold.Chemscore.Hbonds>
donor molecule, donor type, donor heavy atom, donor atom, acceptor molecule, acceptor atom, score
      P1  H  7989  7998       L1     1  0.22
      P1  H  7997  8009       L1     1  0.96
      L1  C    18    35       P1  8028  1.00

> <Gold.PLP.Chemscore.Internal.Correction>
0.0129

> <Gold.Rescore>
     Score         DG    S(hbond)    S(metal)    S(lipo)     H(rot)  DE(clash)    DE(int)     intcor
     13.55     -15.41       1.00        0.00     100.03       2.00       0.40       1.46       ----

> <Gold.Chemscore.Fitness>
13.5464

> <Gold.Chemscore.DG>
-15.4102

> <Gold.Chemscore.ZeroCoef>
-5.4800

> <Gold.Chemscore.Hbond>
0.9997

> <Gold.Chemscore.Metal>
0.0000

> <Gold.Chemscore.Lipo>
100.0294

> <Gold.Chemscore.Internal_Hbond>
0.0000

> <Gold.Chemscore.DEClash>
0.4003

> <Gold.Chemscore.DEInternal>
1.4636

> <Gold.Chemscore.Rot>
1.9969

> <Gold.Chemscore.Internal.Correction>
   9.000000E+99

> <Gold.Chemscore.Hbonds>
donor molecule, donor type, donor heavy atom, donor atom, acceptor molecule, acceptor atom, score
      P1  H  7989  7998       L1     1  0.01
      P1  H  7997  8009       L1     1  0.91

> <Gold.Chemscore.Hbond.Weighted>
-3.3389

> <Gold.Chemscore.Metal.Weighted>
-0.0000

> <Gold.Chemscore.Lipo.Weighted>
-11.7034

> <Gold.Chemscore.Internal_Hbond.Weighted>
0.0000

> <Gold.Chemscore.DEClash.Weighted>
0.4003

> <Gold.Chemscore.DEInternal.Weighted>
1.4636

> <Gold.Chemscore.Rot.Weighted>
5.1122

> <Gold.Chemscore.Internal.Correction.Weighted>
   9.000000E+99

> <Gold.Protein.RotatedTorsions>
[ 6907 6896 6895 6894 ] final   21.42 input  -60.11 | X-H torsion
[ 7974 7965 7964 7962 ] final  -45.26 input  175.53 | X-H torsion
[ 8008 7997 7996 7995 ] final -139.17 input   59.86 | X-H torsion
[ 10167 10162 10161 10158 ] final   69.67 input  -65.29 | X-H torsion
[ 10718 10713 10712 10709 ] final -122.31 input   66.30 | X-H torsion
[ 10763 10752 10751 10750 ] final  150.39 input  -60.55 | X-H torsion
[ 11005 11000 10999 10996 ] final   70.40 input  -57.11 | X-H torsion

> <Gold.Protein.ActiveResidues>
 VAL166  LYS551  ARG553  GLY616  TRP617  ASP618  TYR619  PRO620  LYS621  CYS622 
 ASP623  PHE694  ASN695  SER759  ASP760  ASP761  ALA762  ILE779  LEU786  VAL792 
 PHE793  MET794  SER795  GLU796  ALA797  LYS798  CYS799  TRP800  GLU811  SER814 

> <Gold.Protein.RotatedAtoms>
  151.9115  135.0337  160.0514 H   0  0  0  0  0  0  0  0  0  0  0  0  # atno 6907 bound_to 6896
  152.2276  133.5028  159.5206 H   0  0  0  0  0  0  0  0  0  0  0  0  # atno 6908 bound_to 6896
  150.7016  134.1176  159.4066 H   0  0  0  0  0  0  0  0  0  0  0  0  # atno 6909 bound_to 6896
  145.9838  140.7255  142.9350 H   0  0  0  0  0  0  0  0  0  0  0  0  # atno 7974 bound_to 7965
  155.4405  140.0531  157.3011 H   0  0  0  0  0  0  0  0  0  0  0  0  # atno 8008 bound_to 7997
  154.4820  140.2085  155.9698 H   0  0  0  0  0  0  0  0  0  0  0  0  # atno 8009 bound_to 7997
  156.1220  140.3187  155.8226 H   0  0  0  0  0  0  0  0  0  0  0  0  # atno 8010 bound_to 7997
  140.0652  144.5199  150.7266 H   0  0  0  0  0  0  0  0  0  0  0  0  # atno 10167 bound_to 10162
  156.1408  130.6465  150.9768 H   0  0  0  0  0  0  0  0  0  0  0  0  # atno 10718 bound_to 10713
  154.0866  135.2855  155.3280 H   0  0  0  0  0  0  0  0  0  0  0  0  # atno 10763 bound_to 10752
  154.6648  135.5321  153.8066 H   0  0  0  0  0  0  0  0  0  0  0  0  # atno 10764 bound_to 10752
  153.0429  135.6543  154.1038 H   0  0  0  0  0  0  0  0  0  0  0  0  # atno 10765 bound_to 10752
  139.9600  134.7078  156.0668 H   0  0  0  0  0  0  0  0  0  0  0  0  # atno 11005 bound_to 11000
  144.6869  140.2953  143.7271 LP  0  0  0  0  0  0  0  0  0  0  0  0  # atno 17320 bound_to 7965
  145.7731  139.1864  143.2201 LP  0  0  0  0  0  0  0  0  0  0  0  0  # atno 17321 bound_to 7965
  140.7152  143.2539  151.4456 LP  0  0  0  0  0  0  0  0  0  0  0  0  # atno 17342 bound_to 10162
  139.5869  144.1584  152.2040 LP  0  0  0  0  0  0  0  0  0  0  0  0  # atno 17343 bound_to 10162
  157.6574  131.0887  150.7916 LP  0  0  0  0  0  0  0  0  0  0  0  0  # atno 17370 bound_to 10713
  156.7992  130.4915  149.5372 LP  0  0  0  0  0  0  0  0  0  0  0  0  # atno 17371 bound_to 10713
  141.1276  133.6595  156.3377 LP  0  0  0  0  0  0  0  0  0  0  0  0  # atno 17394 bound_to 11000
  140.5522  134.6016  157.5411 LP  0  0  0  0  0  0  0  0  0  0  0  0  # atno 17395 bound_to 11000

$$$$
