AV-unprocessed.smi:235|AV-procd|sdf|1805|dock5
  -GOLD-   2262020383D 1   1.00000     0.00000
 Structure written by MMmdl.
 54 58  0  0  0  0  0  0  0  0  1 V2000
  142.0368  135.3597  153.2358 O   0  0  0  0  0  0  0  0  0  0  0  0
  142.4200  136.5290  153.1778 C   0  0  0  0  0  0  0  0  0  0  0  0
  141.6608  137.5729  153.5412 N   0  0  0  0  0  0  0  0  0  0  0  0
  140.3272  137.4883  154.0374 C   0  0  0  0  0  0  0  0  0  0  0  0
  139.3083  136.7747  153.1763 C   0  0  0  0  0  0  0  0  0  0  0  0
  139.2514  138.2718  153.3197 C   0  0  0  0  0  0  0  0  0  0  0  0
  143.8389  136.8604  152.6946 C   0  0  2  0  0  0  0  0  0  0  0  0
  144.1404  136.2873  151.2943 C   0  0  0  0  0  0  0  0  0  0  0  0
  145.6094  135.8903  151.3613 C   0  0  0  0  0  0  0  0  0  0  0  0
  145.7422  135.4128  152.8018 C   0  0  0  0  0  0  0  0  0  0  0  0
  144.8474  136.2653  153.5810 N   0  0  0  0  0  0  0  0  0  0  0  0
  145.3915  137.1515  154.4533 C   0  0  0  0  0  0  0  0  0  0  0  0
  145.3357  136.9164  155.7916 N   0  0  0  0  0  0  0  0  0  0  0  0
  145.9284  137.7550  156.6469 C   0  0  0  0  0  0  0  0  0  0  0  0
  146.6298  138.8592  156.3829 N   0  0  0  0  0  0  0  0  0  0  0  0
  146.6902  139.0964  155.0413 C   0  0  0  0  0  0  0  0  0  0  0  0
  146.0976  138.3059  154.0176 C   0  0  0  0  0  0  0  0  0  0  0  0
  146.3645  138.8649  152.7737 N   0  0  0  0  0  0  0  0  0  0  0  0
  147.0929  139.9130  153.0438 C   0  0  0  0  0  0  0  0  0  0  0  0
  147.3483  140.1183  154.3807 N   0  0  0  0  0  0  0  0  0  0  0  0
  148.1479  141.1807  154.9607 C   0  0  0  0  0  0  0  0  0  0  0  0
  149.6475  141.0623  154.6129 C   0  0  2  0  0  0  0  0  0  0  0  0
  149.7701  141.2597  153.2187 O   0  0  0  0  0  0  0  0  0  0  0  0
  150.2894  139.7068  154.9873 C   0  0  1  0  0  0  0  0  0  0  0  0
  149.8404  138.5337  154.1093 C   0  0  0  0  0  0  0  0  0  0  0  0
  151.0096  137.5605  154.1553 C   0  0  0  0  0  0  0  0  0  0  0  0
  152.1324  138.3610  154.8149 C   0  0  0  0  0  0  0  0  0  0  0  0
  151.6912  139.7078  154.7552 O   0  0  0  0  0  0  0  0  0  0  0  0
  142.0629  138.4964  153.4714 H   0  0  0  0  0  0  0  0  0  0  0  0
  140.2049  137.3665  155.1129 H   0  0  0  0  0  0  0  0  0  0  0  0
  139.6374  136.3756  152.2187 H   0  0  0  0  0  0  0  0  0  0  0  0
  138.5417  136.1928  153.6839 H   0  0  0  0  0  0  0  0  0  0  0  0
  138.4491  138.6894  153.9245 H   0  0  0  0  0  0  0  0  0  0  0  0
  139.5534  138.8771  152.4674 H   0  0  0  0  0  0  0  0  0  0  0  0
  143.9695  137.9452  152.6549 H   0  0  0  0  0  0  0  0  0  0  0  0
  143.5414  135.3995  151.0838 H   0  0  0  0  0  0  0  0  0  0  0  0
  143.9456  137.0090  150.5005 H   0  0  0  0  0  0  0  0  0  0  0  0
  145.8811  135.1273  150.6315 H   0  0  0  0  0  0  0  0  0  0  0  0
  146.2416  136.7639  151.1960 H   0  0  0  0  0  0  0  0  0  0  0  0
  145.3826  134.3868  152.8903 H   0  0  0  0  0  0  0  0  0  0  0  0
  146.7792  135.4117  153.1400 H   0  0  0  0  0  0  0  0  0  0  0  0
  145.8354  137.4983  157.6919 H   0  0  0  0  0  0  0  0  0  0  0  0
  147.4792  140.5587  152.2685 H   0  0  0  0  0  0  0  0  0  0  0  0
  147.7541  142.1376  154.6151 H   0  0  0  0  0  0  0  0  0  0  0  0
  148.0064  141.1563  156.0422 H   0  0  0  0  0  0  0  0  0  0  0  0
  150.1985  141.8650  155.1044 H   0  0  0  0  0  0  0  0  0  0  0  0
  149.8178  140.4139  152.7995 H   0  0  0  0  0  0  0  0  0  0  0  0
  150.1049  139.4757  156.0383 H   0  0  0  0  0  0  0  0  0  0  0  0
  148.9072  138.0884  154.4559 H   0  0  0  0  0  0  0  0  0  0  0  0
  149.6887  138.8673  153.0819 H   0  0  0  0  0  0  0  0  0  0  0  0
  150.7747  136.6676  154.7357 H   0  0  0  0  0  0  0  0  0  0  0  0
  151.2850  137.2451  153.1482 H   0  0  0  0  0  0  0  0  0  0  0  0
  152.2481  138.0659  155.8584 H   0  0  0  0  0  0  0  0  0  0  0  0
  153.0928  138.2350  154.3150 H   0  0  0  0  0  0  0  0  0  0  0  0
  1  2  2  0  0  0  0
  2  3  1  0  0  0  0
  2  7  1  0  0  0  0
  3  4  1  0  0  0  0
  3 29  1  0  0  0  0
  4  6  1  0  0  0  0
  4  5  1  0  0  0  0
  4 30  1  0  0  0  0
  5  6  1  0  0  0  0
  5 31  1  0  0  0  0
  5 32  1  0  0  0  0
  6 33  1  0  0  0  0
  6 34  1  0  0  0  0
  7 11  1  0  0  0  0
  7  8  1  0  0  0  0
  7 35  1  0  0  0  0
  8  9  1  0  0  0  0
  8 36  1  0  0  0  0
  8 37  1  0  0  0  0
  9 10  1  0  0  0  0
  9 38  1  0  0  0  0
  9 39  1  0  0  0  0
 10 11  1  0  0  0  0
 10 40  1  0  0  0  0
 10 41  1  0  0  0  0
 11 12  1  0  0  0  0
 12 17  1  0  0  0  0
 12 13  2  0  0  0  0
 13 14  1  0  0  0  0
 14 15  2  0  0  0  0
 14 42  1  0  0  0  0
 15 16  1  0  0  0  0
 16 20  1  0  0  0  0
 16 17  2  0  0  0  0
 17 18  1  0  0  0  0
 18 19  2  0  0  0  0
 19 20  1  0  0  0  0
 19 43  1  0  0  0  0
 20 21  1  0  0  0  0
 21 22  1  0  0  0  0
 21 44  1  0  0  0  0
 21 45  1  0  0  0  0
 22 23  1  0  0  0  0
 22 24  1  0  0  0  0
 22 46  1  0  0  0  0
 23 47  1  0  0  0  0
 24 28  1  0  0  0  0
 24 25  1  0  0  0  0
 24 48  1  0  0  0  0
 25 26  1  0  0  0  0
 25 49  1  0  0  0  0
 25 50  1  0  0  0  0
 26 27  1  0  0  0  0
 26 51  1  0  0  0  0
 26 52  1  0  0  0  0
 27 28  1  0  0  0  0
 27 53  1  0  0  0  0
 27 54  1  0  0  0  0
M  END
> <s_m_source_file>
AV-unprocessed.smi

> <i_m_source_file_index>
235

> <i_lp_mmshare_version>
43012

> <i_f3d_flags>
0

> <s_epik_input>
W0NIMl0xW0NIMl1bQ0hdMVtOSF1DKD1PKVtDQEBIXTJbQ0gyXVtDSDJdW0NIMl1OMmMobltjSF1uMyljKGMzNCluW2NIXW40W0NIMl1bQ0BIXShbT0hdKVtDQEBIXTVbQ0gyXVtDSDJdW0NIMl1PNQ==

> <s_epik_cmdline>
J2VwaWtfcHl0aG9uJywgJy1waCcsICc3LjAnLCAnLXRuJywgJzgnLCAnLW1hJywgJzIwMCcsICctbWV0YWxfYmluZGluZycsICctaW1hZScsICc8aW5maWxlLm1hZT4nLCAnLW9tYWUnLCAnPG91dGZpbGUubWFlPic=

> <r_lp_tautomer_probability>
1

> <r_epik_Ionization_Penalty>
0.000526714

> <r_epik_Ionization_Penalty_Charging>
0

> <r_epik_Ionization_Penalty_Neutral>
0.000526714

> <r_epik_State_Penalty>
0.000272704

> <r_epik_Charging_Adjusted_Penalty>
0.000272704

> <i_epik_Tot_Q>
0

> <i_epik_Tot_abs_Q>
0

> <r_epik_Metal_State_Penalty>
-0

> <b_epik_Metal_Only>
0

> <s_lp_Force_Field>
OPLS_2005

> <r_lp_Energy>
59.397

> <b_lp_Chiralities_Consistent>
1

> <s_lp_Variant>
AV-unprocessed.smi:235-5

> <Gold.Version>
5.8.1

> <Gold.Id.Protein>
6NUR|6NUR_protein|mol2

> <Gold.PLP.Fitness>
47.5790

> <Gold.PLP.PLP>
-38.3430

> <Gold.PLP.part.hbond>
-3.0574

> <Gold.PLP.part.metal>
0.0000

> <Gold.PLP.part.buried>
-5.0566

> <Gold.PLP.part.nonpolar>
-30.8131

> <Gold.PLP.part.repulsive>
0.4869

> <Gold.PLP.ligand.clash>
0.0000

> <Gold.PLP.ligand.torsion>
0.3325

> <Gold.PLP.Chemscore.Hbond>
2.4160

> <Gold.PLP.Chemscore.CHOScore>
0.7779

> <Gold.PLP.Chemscore.Metal>
0.0000

> <Gold.Chemscore.Hbonds>
donor molecule, donor type, donor heavy atom, donor atom, acceptor molecule, acceptor atom, score
      L1  H    23    47       P1  7957  0.56
      P1  H  7989  7998       L1    28  0.80
      P1  H  8011  8017       L1    23  0.80
      L1  C    19    43       P1  7957  0.83

> <Gold.PLP.Chemscore.Internal.Correction>
0.3194

> <Gold.Rescore>
     Score         DG    S(hbond)    S(metal)    S(lipo)     H(rot)  DE(clash)    DE(int)     intcor
     10.45     -13.26       1.92        0.00      77.23       3.00       0.07       2.75       ----

> <Gold.Chemscore.Fitness>
10.4453

> <Gold.Chemscore.DG>
-13.2623

> <Gold.Chemscore.ZeroCoef>
-5.4800

> <Gold.Chemscore.Hbond>
1.9232

> <Gold.Chemscore.Metal>
0.0000

> <Gold.Chemscore.Lipo>
77.2306

> <Gold.Chemscore.Internal_Hbond>
0.0000

> <Gold.Chemscore.DEClash>
0.0694

> <Gold.Chemscore.DEInternal>
2.7475

> <Gold.Chemscore.Rot>
2.9989

> <Gold.Chemscore.Internal.Correction>
   9.000000E+99

> <Gold.Chemscore.Hbonds>
donor molecule, donor type, donor heavy atom, donor atom, acceptor molecule, acceptor atom, score
      L1  H    23    47       P1  7957  0.56
      P1  H  7989  7998       L1    28  0.12
      P1  H  8011  8017       L1    23  0.71

> <Gold.Chemscore.Hbond.Weighted>
-6.4235

> <Gold.Chemscore.Metal.Weighted>
-0.0000

> <Gold.Chemscore.Lipo.Weighted>
-9.0360

> <Gold.Chemscore.Internal_Hbond.Weighted>
0.0000

> <Gold.Chemscore.DEClash.Weighted>
0.0694

> <Gold.Chemscore.DEInternal.Weighted>
2.7475

> <Gold.Chemscore.Rot.Weighted>
7.6772

> <Gold.Chemscore.Internal.Correction.Weighted>
   9.000000E+99

> <Gold.Protein.RotatedTorsions>
[ 6907 6896 6895 6894 ] final  170.54 input  -60.11 | X-H torsion
[ 7974 7965 7964 7962 ] final   56.64 input  175.53 | X-H torsion
[ 8008 7997 7996 7995 ] final  117.83 input   59.86 | X-H torsion
[ 10167 10162 10161 10158 ] final -170.83 input  -65.29 | X-H torsion
[ 10718 10713 10712 10709 ] final  163.14 input   66.30 | X-H torsion
[ 10763 10752 10751 10750 ] final -168.94 input  -60.55 | X-H torsion
[ 11005 11000 10999 10996 ] final -171.16 input  -57.11 | X-H torsion

> <Gold.Protein.ActiveResidues>
 VAL166  LYS551  ARG553  GLY616  TRP617  ASP618  TYR619  PRO620  LYS621  CYS622 
 ASP623  PHE694  ASN695  SER759  ASP760  ASP761  ALA762  ILE779  LEU786  VAL792 
 PHE793  MET794  SER795  GLU796  ALA797  LYS798  CYS799  TRP800  GLU811  SER814 

> <Gold.Protein.RotatedAtoms>
  151.8145  133.3386  159.3565 H   0  0  0  0  0  0  0  0  0  0  0  0  # atno 6907 bound_to 6896
  150.7315  134.5632  159.5862 H   0  0  0  0  0  0  0  0  0  0  0  0  # atno 6908 bound_to 6896
  152.3051  134.7566  160.0400 H   0  0  0  0  0  0  0  0  0  0  0  0  # atno 6909 bound_to 6896
  145.9376  139.3861  143.0383 H   0  0  0  0  0  0  0  0  0  0  0  0  # atno 7974 bound_to 7965
  156.2515  140.2888  156.0740 H   0  0  0  0  0  0  0  0  0  0  0  0  # atno 8008 bound_to 7997
  155.1639  140.0400  157.2866 H   0  0  0  0  0  0  0  0  0  0  0  0  # atno 8009 bound_to 7997
  154.6373  140.2514  155.7370 H   0  0  0  0  0  0  0  0  0  0  0  0  # atno 8010 bound_to 7997
  139.5838  144.1364  152.1549 H   0  0  0  0  0  0  0  0  0  0  0  0  # atno 10167 bound_to 10162
  157.1127  131.0472  151.2450 H   0  0  0  0  0  0  0  0  0  0  0  0  # atno 10718 bound_to 10713
  154.6576  135.2920  154.9908 H   0  0  0  0  0  0  0  0  0  0  0  0  # atno 10763 bound_to 10752
  154.0979  135.6581  153.4867 H   0  0  0  0  0  0  0  0  0  0  0  0  # atno 10764 bound_to 10752
  153.0411  135.5235  154.7512 H   0  0  0  0  0  0  0  0  0  0  0  0  # atno 10765 bound_to 10752
  140.5114  134.5798  157.5020 H   0  0  0  0  0  0  0  0  0  0  0  0  # atno 11005 bound_to 11000
  145.8342  140.9615  143.0833 LP  0  0  0  0  0  0  0  0  0  0  0  0  # atno 17320 bound_to 7965
  144.6774  140.0202  143.7484 LP  0  0  0  0  0  0  0  0  0  0  0  0  # atno 17321 bound_to 7965
  140.0923  144.5610  150.7046 LP  0  0  0  0  0  0  0  0  0  0  0  0  # atno 17342 bound_to 10162
  140.7113  143.2507  151.4573 LP  0  0  0  0  0  0  0  0  0  0  0  0  # atno 17343 bound_to 10162
  157.4545  130.7617  149.7181 LP  0  0  0  0  0  0  0  0  0  0  0  0  # atno 17370 bound_to 10713
  155.9846  130.3989  150.3300 LP  0  0  0  0  0  0  0  0  0  0  0  0  # atno 17371 bound_to 10713
  139.9657  134.7377  156.0144 LP  0  0  0  0  0  0  0  0  0  0  0  0  # atno 17394 bound_to 11000
  141.1383  133.6570  156.3657 LP  0  0  0  0  0  0  0  0  0  0  0  0  # atno 17395 bound_to 11000

$$$$
