AV-unprocessed.smi:270|AV-procd|sdf|2048|dock6
  -GOLD-   2262021273D 1   1.00000     0.00000
 Structure written by MMmdl.
 54 57  0  0  0  0  0  0  0  0  1 V2000
  147.2927  142.3055  154.0054 C   0  0  0  0  0  0  0  0  0  0  0  0
  147.4458  140.9019  154.6119 C   0  0  1  0  0  0  0  0  0  0  0  0
  147.2933  139.9589  153.5533 O   0  0  0  0  0  0  0  0  0  0  0  0
  148.0903  138.8213  153.8310 C   0  0  0  0  0  0  0  0  0  0  0  0
  149.3529  139.4409  154.4091 C   0  0  0  0  0  0  0  0  0  0  0  0
  148.8119  140.5723  155.2786 C   0  0  2  0  0  0  0  0  0  0  0  0
  148.5445  140.0391  156.5656 O   0  0  0  0  0  0  0  0  0  0  0  0
  149.8006  141.7560  155.4474 C   0  0  0  0  0  0  0  0  0  0  0  0
  150.8056  141.5287  156.4753 N   0  0  0  0  0  0  0  0  0  0  0  0
  151.6714  140.4620  156.5553 C   0  0  0  0  0  0  0  0  0  0  0  0
  152.4909  140.4864  157.5702 N   0  0  0  0  0  0  0  0  0  0  0  0
  152.1565  141.6496  158.2543 C   0  0  0  0  0  0  0  0  0  0  0  0
  152.6489  142.2730  159.4385 C   0  0  0  0  0  0  0  0  0  0  0  0
  153.7215  141.7658  160.2274 N   0  0  0  0  0  0  0  0  0  0  0  0
  153.7661  140.3225  160.4097 C   0  0  0  0  0  0  0  0  0  0  0  0
  154.1385  140.6002  161.8698 C   0  0  0  0  0  0  0  0  0  0  0  0
  155.5295  140.5073  162.1357 O   0  0  0  0  0  0  0  0  0  0  0  0
  155.9933  139.1677  162.1907 C   0  0  0  0  0  0  0  0  0  0  0  0
  155.3667  138.4774  163.4079 C   0  0  0  0  0  0  0  0  0  0  0  0
  155.6299  138.9182  164.5277 O   0  0  0  0  0  0  0  0  0  0  0  0
  154.5506  137.4140  163.2197 N   0  0  0  0  0  0  0  0  0  0  0  0
  153.9275  136.6748  164.3223 C   0  0  0  0  0  0  0  0  0  0  0  0
  154.2533  136.9418  161.8647 C   0  0  0  0  0  0  0  0  0  0  0  0
  153.6934  142.0481  161.6575 C   0  0  0  0  0  0  0  0  0  0  0  0
  152.0667  143.4531  159.7826 N   0  0  0  0  0  0  0  0  0  0  0  0
  151.0700  143.9701  159.0588 C   0  0  0  0  0  0  0  0  0  0  0  0
  150.5082  143.4870  157.9507 N   0  0  0  0  0  0  0  0  0  0  0  0
  151.0950  142.3157  157.5765 C   0  0  0  0  0  0  0  0  0  0  0  0
  147.3798  143.0811  154.7663 H   0  0  0  0  0  0  0  0  0  0  0  0
  146.3134  142.4171  153.5395 H   0  0  0  0  0  0  0  0  0  0  0  0
  148.0422  142.4937  153.2364 H   0  0  0  0  0  0  0  0  0  0  0  0
  146.6288  140.7419  155.3182 H   0  0  0  0  0  0  0  0  0  0  0  0
  147.5891  138.1869  154.5638 H   0  0  0  0  0  0  0  0  0  0  0  0
  148.2802  138.2331  152.9330 H   0  0  0  0  0  0  0  0  0  0  0  0
  149.9774  138.7264  154.9476 H   0  0  0  0  0  0  0  0  0  0  0  0
  149.9448  139.8482  153.5891 H   0  0  0  0  0  0  0  0  0  0  0  0
  147.6165  139.8746  156.6337 H   0  0  0  0  0  0  0  0  0  0  0  0
  150.3211  141.9578  154.5108 H   0  0  0  0  0  0  0  0  0  0  0  0
  149.2597  142.6680  155.7028 H   0  0  0  0  0  0  0  0  0  0  0  0
  151.6812  139.6641  155.8269 H   0  0  0  0  0  0  0  0  0  0  0  0
  152.7928  139.8409  160.3042 H   0  0  0  0  0  0  0  0  0  0  0  0
  154.5425  139.8350  159.8196 H   0  0  0  0  0  0  0  0  0  0  0  0
  153.5180  140.0716  162.5951 H   0  0  0  0  0  0  0  0  0  0  0  0
  155.7002  138.6403  161.2814 H   0  0  0  0  0  0  0  0  0  0  0  0
  157.0811  139.1200  162.2489 H   0  0  0  0  0  0  0  0  0  0  0  0
  154.6810  136.2924  165.0114 H   0  0  0  0  0  0  0  0  0  0  0  0
  153.3516  135.8151  163.9804 H   0  0  0  0  0  0  0  0  0  0  0  0
  153.2438  137.3152  164.8803 H   0  0  0  0  0  0  0  0  0  0  0  0
  153.8392  137.7495  161.2592 H   0  0  0  0  0  0  0  0  0  0  0  0
  153.5315  136.1254  161.8457 H   0  0  0  0  0  0  0  0  0  0  0  0
  155.1627  136.5859  161.3785 H   0  0  0  0  0  0  0  0  0  0  0  0
  154.4208  142.7974  161.9707 H   0  0  0  0  0  0  0  0  0  0  0  0
  152.6946  142.2411  162.0523 H   0  0  0  0  0  0  0  0  0  0  0  0
  150.6683  144.9062  159.4176 H   0  0  0  0  0  0  0  0  0  0  0  0
  1  2  1  0  0  0  0
  1 29  1  0  0  0  0
  1 30  1  0  0  0  0
  1 31  1  0  0  0  0
  2  6  1  0  0  0  0
  2  3  1  0  0  0  0
  2 32  1  0  0  0  0
  3  4  1  0  0  0  0
  4  5  1  0  0  0  0
  4 33  1  0  0  0  0
  4 34  1  0  0  0  0
  5  6  1  0  0  0  0
  5 35  1  0  0  0  0
  5 36  1  0  0  0  0
  6  7  1  0  0  0  0
  6  8  1  0  0  0  0
  7 37  1  0  0  0  0
  8  9  1  0  0  0  0
  8 38  1  0  0  0  0
  8 39  1  0  0  0  0
  9 28  1  0  0  0  0
  9 10  1  0  0  0  0
 10 11  2  0  0  0  0
 10 40  1  0  0  0  0
 11 12  1  0  0  0  0
 12 28  2  0  0  0  0
 12 13  1  0  0  0  0
 13 14  1  0  0  0  0
 13 25  2  0  0  0  0
 14 24  1  0  0  0  0
 14 15  1  0  0  0  0
 15 16  1  0  0  0  0
 15 41  1  0  0  0  0
 15 42  1  0  0  0  0
 16 17  1  0  0  0  0
 16 24  1  0  0  0  0
 16 43  1  0  0  0  0
 17 18  1  0  0  0  0
 18 19  1  0  0  0  0
 18 44  1  0  0  0  0
 18 45  1  0  0  0  0
 19 20  2  0  0  0  0
 19 21  1  0  0  0  0
 21 22  1  0  0  0  0
 21 23  1  0  0  0  0
 22 46  1  0  0  0  0
 22 47  1  0  0  0  0
 22 48  1  0  0  0  0
 23 49  1  0  0  0  0
 23 50  1  0  0  0  0
 23 51  1  0  0  0  0
 24 52  1  0  0  0  0
 24 53  1  0  0  0  0
 25 26  1  0  0  0  0
 26 27  2  0  0  0  0
 26 54  1  0  0  0  0
 27 28  1  0  0  0  0
M  END
> <s_m_source_file>
AV-unprocessed.smi

> <i_m_source_file_index>
270

> <i_lp_mmshare_version>
43012

> <i_f3d_flags>
0

> <s_epik_input>
W0NIMl0xW0NIMl1PW0NAQEhdKFtDSDNdKVtDQEBdMShbT0hdKVtDSDJdbihbY0hdbjIpYyhjMjMpbltjSF1uYzNONFtDSDJdW0NIXShbQ0gyXTQpT1tDSDJdQyg9TylOKFtDSDNdKVtDSDNd

> <s_epik_cmdline>
J2VwaWtfcHl0aG9uJywgJy1waCcsICc3LjAnLCAnLXRuJywgJzgnLCAnLW1hJywgJzIwMCcsICctbWV0YWxfYmluZGluZycsICctaW1hZScsICc8aW5maWxlLm1hZT4nLCAnLW9tYWUnLCAnPG91dGZpbGUubWFlPic=

> <r_lp_tautomer_probability>
1

> <r_epik_Ionization_Penalty>
0.00375854

> <r_epik_Ionization_Penalty_Charging>
0

> <r_epik_Ionization_Penalty_Neutral>
0.00375854

> <r_epik_State_Penalty>
-0

> <r_epik_Charging_Adjusted_Penalty>
0

> <i_epik_Tot_Q>
0

> <i_epik_Tot_abs_Q>
0

> <r_epik_Metal_State_Penalty>
-0

> <b_epik_Metal_Only>
0

> <s_lp_Force_Field>
OPLS_2005

> <r_lp_Energy>
53.4022

> <b_lp_Chiralities_Consistent>
1

> <s_lp_Variant>
AV-unprocessed.smi:270-4

> <Gold.Version>
5.8.1

> <Gold.Id.Protein>
6NUR|6NUR_protein|mol2

> <Gold.PLP.Fitness>
51.4341

> <Gold.PLP.PLP>
-51.2619

> <Gold.PLP.part.hbond>
-2.0000

> <Gold.PLP.part.metal>
0.0000

> <Gold.PLP.part.buried>
-6.0539

> <Gold.PLP.part.nonpolar>
-43.5134

> <Gold.PLP.part.repulsive>
0.8699

> <Gold.PLP.ligand.clash>
0.0000

> <Gold.PLP.ligand.torsion>
1.1178

> <Gold.PLP.Chemscore.Hbond>
0.7007

> <Gold.PLP.Chemscore.CHOScore>
0.0000

> <Gold.PLP.Chemscore.Metal>
0.0000

> <Gold.Chemscore.Hbonds>
donor molecule, donor type, donor heavy atom, donor atom, acceptor molecule, acceptor atom, score
      P1  H  7997  8010       L1    11  0.67

> <Gold.PLP.Chemscore.Internal.Correction>
0.3056

> <Gold.Rescore>
     Score         DG    S(hbond)    S(metal)    S(lipo)     H(rot)  DE(clash)    DE(int)     intcor
      6.70     -10.24       0.43        0.00      96.78       3.12       2.53       1.01       ----

> <Gold.Chemscore.Fitness>
6.7032

> <Gold.Chemscore.DG>
-10.2423

> <Gold.Chemscore.ZeroCoef>
-5.4800

> <Gold.Chemscore.Hbond>
0.4298

> <Gold.Chemscore.Metal>
0.0000

> <Gold.Chemscore.Lipo>
96.7754

> <Gold.Chemscore.Internal_Hbond>
0.0000

> <Gold.Chemscore.DEClash>
2.5314

> <Gold.Chemscore.DEInternal>
1.0077

> <Gold.Chemscore.Rot>
3.1234

> <Gold.Chemscore.Internal.Correction>
   9.000000E+99

> <Gold.Chemscore.Hbonds>
donor molecule, donor type, donor heavy atom, donor atom, acceptor molecule, acceptor atom, score
      P1  H  7997  8010       L1    11  0.33

> <Gold.Chemscore.Hbond.Weighted>
-1.4355

> <Gold.Chemscore.Metal.Weighted>
-0.0000

> <Gold.Chemscore.Lipo.Weighted>
-11.3227

> <Gold.Chemscore.Internal_Hbond.Weighted>
0.0000

> <Gold.Chemscore.DEClash.Weighted>
2.5314

> <Gold.Chemscore.DEInternal.Weighted>
1.0077

> <Gold.Chemscore.Rot.Weighted>
7.9959

> <Gold.Chemscore.Internal.Correction.Weighted>
   9.000000E+99

> <Gold.Protein.RotatedTorsions>
[ 6907 6896 6895 6894 ] final    3.66 input  -60.11 | X-H torsion
[ 7974 7965 7964 7962 ] final    1.78 input  175.53 | X-H torsion
[ 8008 7997 7996 7995 ] final   53.82 input   59.86 | X-H torsion
[ 10167 10162 10161 10158 ] final  -58.69 input  -65.29 | X-H torsion
[ 10718 10713 10712 10709 ] final  111.29 input   66.30 | X-H torsion
[ 10763 10752 10751 10750 ] final  -47.47 input  -60.55 | X-H torsion
[ 11005 11000 10999 10996 ] final  -29.76 input  -57.11 | X-H torsion

> <Gold.Protein.ActiveResidues>
 VAL166  LYS551  ARG553  GLY616  TRP617  ASP618  TYR619  PRO620  LYS621  CYS622 
 ASP623  PHE694  ASN695  SER759  ASP760  ASP761  ALA762  ILE779  LEU786  VAL792 
 PHE793  MET794  SER795  GLU796  ALA797  LYS798  CYS799  TRP800  GLU811  SER814 

> <Gold.Protein.RotatedAtoms>
  151.6287  135.1025  160.0116 H   0  0  0  0  0  0  0  0  0  0  0  0  # atno 6907 bound_to 6896
  152.4118  133.6971  159.6413 H   0  0  0  0  0  0  0  0  0  0  0  0  # atno 6908 bound_to 6896
  150.8008  133.8527  159.3251 H   0  0  0  0  0  0  0  0  0  0  0  0  # atno 6909 bound_to 6896
  146.2441  140.0935  142.8351 H   0  0  0  0  0  0  0  0  0  0  0  0  # atno 7974 bound_to 7965
  155.4746  140.3466  155.4331 H   0  0  0  0  0  0  0  0  0  0  0  0  # atno 8008 bound_to 7997
  156.1078  140.1453  156.9408 H   0  0  0  0  0  0  0  0  0  0  0  0  # atno 8009 bound_to 7997
  154.4736  140.0892  156.7185 H   0  0  0  0  0  0  0  0  0  0  0  0  # atno 8010 bound_to 7997
  140.6181  143.2409  151.5547 H   0  0  0  0  0  0  0  0  0  0  0  0  # atno 10167 bound_to 10162
  157.6452  131.0948  150.6726 H   0  0  0  0  0  0  0  0  0  0  0  0  # atno 10718 bound_to 10713
  154.0619  135.6617  153.4813 H   0  0  0  0  0  0  0  0  0  0  0  0  # atno 10763 bound_to 10752
  153.0423  135.5137  154.7651 H   0  0  0  0  0  0  0  0  0  0  0  0  # atno 10764 bound_to 10752
  154.6690  135.3026  154.9734 H   0  0  0  0  0  0  0  0  0  0  0  0  # atno 10765 bound_to 10752
  140.9324  133.7330  156.0955 H   0  0  0  0  0  0  0  0  0  0  0  0  # atno 11005 bound_to 11000
  145.0630  140.9101  143.4927 LP  0  0  0  0  0  0  0  0  0  0  0  0  # atno 17320 bound_to 7965
  145.1054  139.2794  143.5665 LP  0  0  0  0  0  0  0  0  0  0  0  0  # atno 17321 bound_to 7965
  139.5416  144.2633  152.1361 LP  0  0  0  0  0  0  0  0  0  0  0  0  # atno 17342 bound_to 10162
  140.1847  144.4810  150.6510 LP  0  0  0  0  0  0  0  0  0  0  0  0  # atno 17343 bound_to 10162
  156.7045  130.4633  149.5564 LP  0  0  0  0  0  0  0  0  0  0  0  0  # atno 17370 bound_to 10713
  156.1773  130.6476  151.0909 LP  0  0  0  0  0  0  0  0  0  0  0  0  # atno 17371 bound_to 10713
  140.7845  134.3688  157.5479 LP  0  0  0  0  0  0  0  0  0  0  0  0  # atno 17394 bound_to 11000
  139.8799  134.9102  156.3008 LP  0  0  0  0  0  0  0  0  0  0  0  0  # atno 17395 bound_to 11000

$$$$
