AV-unprocessed.smi:1131|AV-procd|sdf|4853|dock6
  -GOLD-   22720 3423D 1   1.00000     0.00000
 Structure written by MMmdl.
 32 33  0  0  0  0  0  0  0  0  2 V2000
  155.2609  141.1420  161.4888 O   0  0  0  0  0  0  0  0  0  0  0  0
  154.5466  140.9736  160.4994 C   0  0  0  0  0  0  0  0  0  0  0  0
  154.7242  139.7392  159.6049 C   0  0  0  0  0  0  0  0  0  0  0  0
  153.4914  138.9477  159.4636 N   0  0  0  0  0  0  0  0  0  0  0  0
  152.4763  139.4600  158.6364 C   0  0  0  0  0  0  0  0  0  0  0  0
  151.3136  138.8064  158.4508 C   0  0  0  0  0  0  0  0  0  0  0  0
  151.1207  137.5335  159.1342 C   0  0  0  0  0  0  0  0  0  0  0  0
  150.0679  136.9196  158.9714 O   0  0  0  0  0  0  0  0  0  0  0  0
  152.1330  137.0810  159.9306 N   0  5  0  0  0  0  0  0  0  0  0  0
  153.3094  137.7579  160.1122 C   0  0  0  0  0  0  0  0  0  0  0  0
  154.2096  137.3325  160.8372 O   0  0  0  0  0  0  0  0  0  0  0  0
  153.5604  141.8145  160.1516 N   0  0  0  0  0  0  0  0  0  0  0  0
  153.2010  143.0392  160.8593 C   0  0  0  0  0  0  0  0  0  0  0  0
  152.6604  144.1181  159.9019 C   0  0  1  0  0  0  0  0  0  0  0  0
  151.8613  143.5973  158.7224 C   0  0  0  0  0  0  0  0  0  0  0  0
  151.0901  144.8397  158.2864 C   0  0  0  0  0  0  0  0  0  0  0  0
  150.8954  145.6142  159.4667 O   0  0  0  0  0  0  0  0  0  0  0  0
  151.6413  145.0578  160.5449 C   0  0  0  0  0  0  0  0  0  0  0  0
  155.0727  140.0773  158.6284 H   0  0  0  0  0  0  0  0  0  0  0  0
  155.5288  139.1130  159.9947 H   0  0  0  0  0  0  0  0  0  0  0  0
  152.6963  140.4102  158.1726 H   0  0  0  0  0  0  0  0  0  0  0  0
  150.5424  139.2148  157.8146 H   0  0  0  0  0  0  0  0  0  0  0  0
  153.0237  141.5928  159.3254 H   0  0  0  0  0  0  0  0  0  0  0  0
  152.4826  142.8327  161.6547 H   0  0  0  0  0  0  0  0  0  0  0  0
  154.0999  143.4104  161.3521 H   0  0  0  0  0  0  0  0  0  0  0  0
  153.4912  144.7163  159.5237 H   0  0  0  0  0  0  0  0  0  0  0  0
  152.4840  143.1861  157.9273 H   0  0  0  0  0  0  0  0  0  0  0  0
  151.1664  142.8214  159.0468 H   0  0  0  0  0  0  0  0  0  0  0  0
  151.6809  145.4267  157.5821 H   0  0  0  0  0  0  0  0  0  0  0  0
  150.1411  144.5931  157.8098 H   0  0  0  0  0  0  0  0  0  0  0  0
  150.9550  144.5035  161.1867 H   0  0  0  0  0  0  0  0  0  0  0  0
  152.1112  145.8358  161.1468 H   0  0  0  0  0  0  0  0  0  0  0  0
  1  2  2  0  0  0  0
  2  3  1  0  0  0  0
  2 12  1  0  0  0  0
  3  4  1  0  0  0  0
  3 19  1  0  0  0  0
  3 20  1  0  0  0  0
  4 10  1  0  0  0  0
  4  5  1  0  0  0  0
  5  6  2  0  0  0  0
  5 21  1  0  0  0  0
  6  7  1  0  0  0  0
  6 22  1  0  0  0  0
  7  8  2  0  0  0  0
  7  9  1  0  0  0  0
  9 10  1  0  0  0  0
 10 11  2  0  0  0  0
 12 13  1  0  0  0  0
 12 23  1  0  0  0  0
 13 14  1  0  0  0  0
 13 24  1  0  0  0  0
 13 25  1  0  0  0  0
 14 18  1  0  0  0  0
 14 15  1  0  0  0  0
 14 26  1  0  0  0  0
 15 16  1  0  0  0  0
 15 27  1  0  0  0  0
 15 28  1  0  0  0  0
 16 17  1  0  0  0  0
 16 29  1  0  0  0  0
 16 30  1  0  0  0  0
 17 18  1  0  0  0  0
 18 31  1  0  0  0  0
 18 32  1  0  0  0  0
M  CHG  1   9  -1
M  END
> <s_m_source_file>
AV-unprocessed.smi

> <i_m_source_file_index>
1131

> <i_lp_mmshare_version>
43012

> <i_f3d_flags>
0

> <s_epik_input>
W0NIMl0xT1tDSDJdW0NIMl1bQ0BIXTFbQ0gyXVtOSF1DKD1PKVtDSDJdbjJbY0hdW2NIXWMoPU8pW25IXWMyPU8=

> <s_epik_cmdline>
J2VwaWtfcHl0aG9uJywgJy1waCcsICc3LjAnLCAnLXRuJywgJzgnLCAnLW1hJywgJzIwMCcsICctbWV0YWxfYmluZGluZycsICctaW1hZScsICc8aW5maWxlLm1hZT4nLCAnLW9tYWUnLCAnPG91dGZpbGUubWFlPic=

> <r_lp_tautomer_probability>
0.999537

> <r_epik_Ionization_Penalty>
3.07866

> <r_epik_Ionization_Penalty_Charging>
2.6898e-08

> <r_epik_Ionization_Penalty_Neutral>
3.07866

> <r_epik_State_Penalty>
3.07769

> <r_epik_Charging_Adjusted_Penalty>
3.07769

> <i_epik_Tot_Q>
-1

> <i_epik_Tot_abs_Q>
1

> <r_epik_Metal_State_Penalty>
0.459839

> <b_epik_Metal_Only>
1

> <s_lp_Force_Field>
OPLS_2005

> <r_lp_Energy>
26.9978

> <b_lp_Chiralities_Consistent>
1

> <s_lp_Variant>
AV-unprocessed.smi:1131-4

> <Gold.Version>
5.8.1

> <Gold.Id.Protein>
6NUR|6NUR_protein|mol2

> <Gold.PLP.Fitness>
41.3700

> <Gold.PLP.PLP>
-36.8070

> <Gold.PLP.part.hbond>
-3.4723

> <Gold.PLP.part.metal>
0.0000

> <Gold.PLP.part.buried>
-6.4677

> <Gold.PLP.part.nonpolar>
-27.0228

> <Gold.PLP.part.repulsive>
0.2197

> <Gold.PLP.ligand.clash>
0.0000

> <Gold.PLP.ligand.torsion>
0.7266

> <Gold.PLP.Chemscore.Hbond>
2.0000

> <Gold.PLP.Chemscore.CHOScore>
0.0000

> <Gold.PLP.Chemscore.Metal>
0.0000

> <Gold.Chemscore.Hbonds>
donor molecule, donor type, donor heavy atom, donor atom, acceptor molecule, acceptor atom, score
      P1  H  6896  6909       L1     9  2.00

> <Gold.PLP.Chemscore.Internal.Correction>
0.0162

> <Gold.Rescore>
     Score         DG    S(hbond)    S(metal)    S(lipo)     H(rot)  DE(clash)    DE(int)     intcor
     11.26     -12.07       0.84        0.00      77.16       2.05       0.11       0.71       ----

> <Gold.Chemscore.Fitness>
11.2555

> <Gold.Chemscore.DG>
-12.0718

> <Gold.Chemscore.ZeroCoef>
-5.4800

> <Gold.Chemscore.Hbond>
0.8391

> <Gold.Chemscore.Metal>
0.0000

> <Gold.Chemscore.Lipo>
77.1603

> <Gold.Chemscore.Internal_Hbond>
0.0000

> <Gold.Chemscore.DEClash>
0.1108

> <Gold.Chemscore.DEInternal>
0.7055

> <Gold.Chemscore.Rot>
2.0463

> <Gold.Chemscore.Internal.Correction>
   9.000000E+99

> <Gold.Chemscore.Hbonds>
donor molecule, donor type, donor heavy atom, donor atom, acceptor molecule, acceptor atom, score
      P1  H  6896  6909       L1     9  0.34

> <Gold.Chemscore.Hbond.Weighted>
-2.8026

> <Gold.Chemscore.Metal.Weighted>
-0.0000

> <Gold.Chemscore.Lipo.Weighted>
-9.0278

> <Gold.Chemscore.Internal_Hbond.Weighted>
0.0000

> <Gold.Chemscore.DEClash.Weighted>
0.1108

> <Gold.Chemscore.DEInternal.Weighted>
0.7055

> <Gold.Chemscore.Rot.Weighted>
5.2386

> <Gold.Chemscore.Internal.Correction.Weighted>
   9.000000E+99

> <Gold.Protein.RotatedTorsions>
[ 6907 6896 6895 6894 ] final  128.80 input  -60.11 | X-H torsion
[ 7974 7965 7964 7962 ] final -177.18 input  175.53 | X-H torsion
[ 8008 7997 7996 7995 ] final  105.77 input   59.86 | X-H torsion
[ 10167 10162 10161 10158 ] final  -78.55 input  -65.29 | X-H torsion
[ 10718 10713 10712 10709 ] final -127.69 input   66.30 | X-H torsion
[ 10763 10752 10751 10750 ] final -134.34 input  -60.55 | X-H torsion
[ 11005 11000 10999 10996 ] final   71.46 input  -57.11 | X-H torsion

> <Gold.Protein.ActiveResidues>
 VAL166  LYS551  ARG553  GLY616  TRP617  ASP618  TYR619  PRO620  LYS621  CYS622 
 ASP623  PHE694  ASN695  SER759  ASP760  ASP761  ALA762  ILE779  LEU786  VAL792 
 PHE793  MET794  SER795  GLU796  ALA797  LYS798  CYS799  TRP800  GLU811  SER814 

> <Gold.Protein.RotatedAtoms>
  152.3685  133.6388  159.6068 H   0  0  0  0  0  0  0  0  0  0  0  0  # atno 6907 bound_to 6896
  150.7651  133.9309  159.3435 H   0  0  0  0  0  0  0  0  0  0  0  0  # atno 6908 bound_to 6896
  151.7136  135.0909  160.0323 H   0  0  0  0  0  0  0  0  0  0  0  0  # atno 6909 bound_to 6896
  144.7127  140.1059  143.6414 H   0  0  0  0  0  0  0  0  0  0  0  0  # atno 7974 bound_to 7965
  156.1687  140.3124  155.8934 H   0  0  0  0  0  0  0  0  0  0  0  0  # atno 8008 bound_to 7997
  155.3633  140.0477  157.3063 H   0  0  0  0  0  0  0  0  0  0  0  0  # atno 8009 bound_to 7997
  154.5218  140.2201  155.8972 H   0  0  0  0  0  0  0  0  0  0  0  0  # atno 8010 bound_to 7997
  140.4672  143.2436  151.8260 H   0  0  0  0  0  0  0  0  0  0  0  0  # atno 10167 bound_to 10162
  156.1881  130.6776  151.0389 H   0  0  0  0  0  0  0  0  0  0  0  0  # atno 10718 bound_to 10713
  154.8720  135.3737  154.4720 H   0  0  0  0  0  0  0  0  0  0  0  0  # atno 10763 bound_to 10752
  153.5380  135.7027  153.5656 H   0  0  0  0  0  0  0  0  0  0  0  0  # atno 10764 bound_to 10752
  153.3830  135.3991  155.1835 H   0  0  0  0  0  0  0  0  0  0  0  0  # atno 10765 bound_to 10752
  139.9542  134.7173  156.0791 H   0  0  0  0  0  0  0  0  0  0  0  0  # atno 11005 bound_to 11000
  145.9497  139.2725  143.1219 LP  0  0  0  0  0  0  0  0  0  0  0  0  # atno 17320 bound_to 7965
  145.9336  140.9031  143.0344 LP  0  0  0  0  0  0  0  0  0  0  0  0  # atno 17321 bound_to 7965
  139.4813  144.4936  151.9153 LP  0  0  0  0  0  0  0  0  0  0  0  0  # atno 17342 bound_to 10162
  140.4021  144.2479  150.5892 LP  0  0  0  0  0  0  0  0  0  0  0  0  # atno 17343 bound_to 10162
  157.6911  131.0809  150.7103 LP  0  0  0  0  0  0  0  0  0  0  0  0  # atno 17370 bound_to 10713
  156.7160  130.4666  149.5535 LP  0  0  0  0  0  0  0  0  0  0  0  0  # atno 17371 bound_to 10713
  141.1211  133.6613  156.3216 LP  0  0  0  0  0  0  0  0  0  0  0  0  # atno 17394 bound_to 11000
  140.5648  134.5899  157.5443 LP  0  0  0  0  0  0  0  0  0  0  0  0  # atno 17395 bound_to 11000

$$$$
