AV-unprocessed.smi:2027|AV-procd|sdf|8219|dock6
  -GOLD-   2272010483D 1   1.00000     0.00000
 Structure written by MMmdl.
 51 53  0  0  0  0  0  0  0  0  3 V2000
  153.6131  142.8482  159.5482 C   0  0  0  0  0  0  0  0  0  0  0  0
  152.6076  142.1028  158.6875 C   0  0  0  0  0  0  0  0  0  0  0  0
  151.6496  142.8518  157.9683 C   0  0  0  0  0  0  0  0  0  0  0  0
  150.7449  142.1422  157.1880 C   0  0  0  0  0  0  0  0  0  0  0  0
  149.7001  142.5834  156.3743 N   0  3  0  0  0  0  0  0  0  0  0  0
  149.0870  141.5119  155.8010 C   0  0  0  0  0  0  0  0  0  0  0  0
  149.7203  140.3897  156.2412 N   0  0  0  0  0  0  0  0  0  0  0  0
  149.4568  138.9771  155.9176 C   0  0  0  0  0  0  0  0  0  0  0  0
  149.3658  138.6863  154.4034 C   0  0  2  0  0  0  0  0  0  0  0  0
  150.5893  139.0460  153.7910 O   0  0  0  0  0  0  0  0  0  0  0  0
  148.2169  139.4360  153.6948 C   0  0  0  0  0  0  0  0  0  0  0  0
  147.1668  138.5314  153.1558 N   0  3  2  0  0  0  0  0  0  0  0  0
  146.3285  139.2053  152.1386 C   0  0  0  0  0  0  0  0  0  0  0  0
  146.3528  137.8408  154.1914 C   0  0  0  0  0  0  0  0  0  0  0  0
  145.3056  136.9754  153.5452 C   0  0  0  0  0  0  0  0  0  0  0  0
  143.8903  137.0504  153.6904 C   0  0  0  0  0  0  0  0  0  0  0  0
  143.2507  136.1313  152.9873 N   0  0  0  0  0  0  0  0  0  0  0  0
  144.2287  135.4468  152.3601 N   0  0  0  0  0  0  0  0  0  0  0  0
  143.8816  134.3459  151.4871 C   0  0  0  0  0  0  0  0  0  0  0  0
  145.4780  135.9362  152.6741 C   0  0  0  0  0  0  0  0  0  0  0  0
  150.7667  140.7356  157.1066 C   0  0  0  0  0  0  0  0  0  0  0  0
  151.7042  139.9829  157.8112 C   0  0  0  0  0  0  0  0  0  0  0  0
  152.6334  140.6863  158.6109 C   0  0  0  0  0  0  0  0  0  0  0  0
  153.6678  139.8908  159.3894 C   0  0  0  0  0  0  0  0  0  0  0  0
  153.4923  143.9281  159.4582 H   0  0  0  0  0  0  0  0  0  0  0  0
  154.6322  142.6021  159.2489 H   0  0  0  0  0  0  0  0  0  0  0  0
  153.4866  142.5844  160.5984 H   0  0  0  0  0  0  0  0  0  0  0  0
  151.6240  143.9307  158.0222 H   0  0  0  0  0  0  0  0  0  0  0  0
  148.2480  141.5461  155.1209 H   0  0  0  0  0  0  0  0  0  0  0  0
  150.2655  138.3923  156.3585 H   0  0  0  0  0  0  0  0  0  0  0  0
  148.5486  138.6540  156.4256 H   0  0  0  0  0  0  0  0  0  0  0  0
  149.2343  137.6120  154.2864 H   0  0  0  0  0  0  0  0  0  0  0  0
  150.6485  138.6067  152.9557 H   0  0  0  0  0  0  0  0  0  0  0  0
  147.7560  140.1533  154.3755 H   0  0  0  0  0  0  0  0  0  0  0  0
  148.6317  140.0185  152.8710 H   0  0  0  0  0  0  0  0  0  0  0  0
  145.7496  140.0154  152.5844 H   0  0  0  0  0  0  0  0  0  0  0  0
  145.6357  138.4980  151.6809 H   0  0  0  0  0  0  0  0  0  0  0  0
  146.9437  139.6223  151.3405 H   0  0  0  0  0  0  0  0  0  0  0  0
  146.9960  137.2595  154.8534 H   0  0  0  0  0  0  0  0  0  0  0  0
  145.8708  138.5717  154.8423 H   0  0  0  0  0  0  0  0  0  0  0  0
  143.3112  137.7389  154.2881 H   0  0  0  0  0  0  0  0  0  0  0  0
  144.7627  134.0105  150.9398 H   0  0  0  0  0  0  0  0  0  0  0  0
  143.1212  134.6633  150.7728 H   0  0  0  0  0  0  0  0  0  0  0  0
  143.4936  133.5163  152.0784 H   0  0  0  0  0  0  0  0  0  0  0  0
  146.3782  135.5053  152.2606 H   0  0  0  0  0  0  0  0  0  0  0  0
  151.7306  138.9052  157.7554 H   0  0  0  0  0  0  0  0  0  0  0  0
  153.5201  138.8172  159.2689 H   0  0  0  0  0  0  0  0  0  0  0  0
  153.6055  140.1167  160.4542 H   0  0  0  0  0  0  0  0  0  0  0  0
  154.6732  140.1304  159.0426 H   0  0  0  0  0  0  0  0  0  0  0  0
  147.6593  137.8033  152.6576 H   0  0  0  0  0  0  0  0  0  0  0  0
  149.4261  143.5451  156.2162 H   0  0  0  0  0  0  0  0  0  0  0  0
  1  2  1  0  0  0  0
  1 25  1  0  0  0  0
  1 26  1  0  0  0  0
  1 27  1  0  0  0  0
  2 23  1  0  0  0  0
  2  3  2  0  0  0  0
  3  4  1  0  0  0  0
  3 28  1  0  0  0  0
  4 21  2  0  0  0  0
  4  5  1  0  0  0  0
  5  6  2  0  0  0  0
  5 51  1  0  0  0  0
  6  7  1  0  0  0  0
  6 29  1  0  0  0  0
  7  8  1  0  0  0  0
  7 21  1  0  0  0  0
  8  9  1  0  0  0  0
  8 30  1  0  0  0  0
  8 31  1  0  0  0  0
  9 10  1  0  0  0  0
  9 11  1  0  0  0  0
  9 32  1  0  0  0  0
 10 33  1  0  0  0  0
 11 12  1  0  0  0  0
 11 34  1  0  0  0  0
 11 35  1  0  0  0  0
 12 13  1  0  0  0  0
 12 14  1  0  0  0  0
 12 50  1  0  0  0  0
 13 36  1  0  0  0  0
 13 37  1  0  0  0  0
 13 38  1  0  0  0  0
 14 15  1  0  0  0  0
 14 39  1  0  0  0  0
 14 40  1  0  0  0  0
 15 20  2  0  0  0  0
 15 16  1  0  0  0  0
 16 17  2  0  0  0  0
 16 41  1  0  0  0  0
 17 18  1  0  0  0  0
 18 19  1  0  0  0  0
 18 20  1  0  0  0  0
 19 42  1  0  0  0  0
 19 43  1  0  0  0  0
 19 44  1  0  0  0  0
 20 45  1  0  0  0  0
 21 22  1  0  0  0  0
 22 23  2  0  0  0  0
 22 46  1  0  0  0  0
 23 24  1  0  0  0  0
 24 47  1  0  0  0  0
 24 48  1  0  0  0  0
 24 49  1  0  0  0  0
M  CHG  1   5   1
M  CHG  1  12   1
M  END
> <s_m_source_file>
AV-unprocessed.smi

> <i_m_source_file_index>
2027

> <i_lp_mmshare_version>
43012

> <i_f3d_flags>
0

> <s_epik_input>
W0NIM11jKFtjSF0xKWMoW0NIM10pW2NIXWMoYzEyKW4oW2NIXW4yKVtDSDJdW0NASF0oW09IXSlbQ0gyXU4oW0NIM10pW0NIMl1jM1tjSF1ubihbQ0gzXSlbY0hdMw==

> <s_epik_cmdline>
J2VwaWtfcHl0aG9uJywgJy1waCcsICc3LjAnLCAnLXRuJywgJzgnLCAnLW1hJywgJzIwMCcsICctbWV0YWxfYmluZGluZycsICctaW1hZScsICc8aW5maWxlLm1hZT4nLCAnLW9tYWUnLCAnPG91dGZpbGUubWFlPic=

> <r_lp_tautomer_probability>
1

> <r_epik_Ionization_Penalty>
1.77469

> <r_epik_Ionization_Penalty_Charging>
1.77463

> <r_epik_Ionization_Penalty_Neutral>
6.41153e-05

> <r_epik_State_Penalty>
1.85225

> <r_epik_Charging_Adjusted_Penalty>
3.62688

> <i_epik_Tot_Q>
2

> <i_epik_Tot_abs_Q>
2

> <r_epik_Metal_State_Penalty>
1.92669

> <b_epik_Metal_Only>
0

> <s_lp_Force_Field>
OPLS_2005

> <r_lp_Energy>
22.3184

> <b_lp_Chiralities_Consistent>
1

> <s_lp_Variant>
AV-unprocessed.smi:2027-11

> <Gold.Version>
5.8.1

> <Gold.Id.Protein>
6NUR|6NUR_protein|mol2

> <Gold.PLP.Fitness>
55.6531

> <Gold.PLP.PLP>
-37.0697

> <Gold.PLP.part.hbond>
-4.0662

> <Gold.PLP.part.metal>
0.0000

> <Gold.PLP.part.buried>
5.1371

> <Gold.PLP.part.nonpolar>
-38.5009

> <Gold.PLP.part.repulsive>
0.3760

> <Gold.PLP.ligand.clash>
0.0000

> <Gold.PLP.ligand.torsion>
0.9410

> <Gold.PLP.Chemscore.Hbond>
5.0000

> <Gold.PLP.Chemscore.CHOScore>
1.7486

> <Gold.PLP.Chemscore.Metal>
0.0000

> <Gold.Chemscore.Hbonds>
donor molecule, donor type, donor heavy atom, donor atom, acceptor molecule, acceptor atom, score
      L1  H     5    51       P1  8028  1.40
      L1  H    12    50       P1  7948  1.30
      P1  H  7989  7998       L1    10  0.81
      L1  C    20    45       P1  7948  0.63

> <Gold.PLP.Chemscore.Internal.Correction>
0.2195

> <Gold.Rescore>
     Score         DG    S(hbond)    S(metal)    S(lipo)     H(rot)  DE(clash)    DE(int)     intcor
     15.95     -16.90       1.97        0.00      97.96       2.58       0.30       0.66       ----

> <Gold.Chemscore.Fitness>
15.9474

> <Gold.Chemscore.DG>
-16.9007

> <Gold.Chemscore.ZeroCoef>
-5.4800

> <Gold.Chemscore.Hbond>
1.9680

> <Gold.Chemscore.Metal>
0.0000

> <Gold.Chemscore.Lipo>
97.9606

> <Gold.Chemscore.Internal_Hbond>
0.0000

> <Gold.Chemscore.DEClash>
0.2979

> <Gold.Chemscore.DEInternal>
0.6554

> <Gold.Chemscore.Rot>
2.5836

> <Gold.Chemscore.Internal.Correction>
   9.000000E+99

> <Gold.Chemscore.Hbonds>
donor molecule, donor type, donor heavy atom, donor atom, acceptor molecule, acceptor atom, score
      L1  H     5    51       P1  8028  0.69
      L1  H    12    50       P1  7948  0.65
      P1  H  7989  7998       L1    10  0.30

> <Gold.Chemscore.Hbond.Weighted>
-6.5732

> <Gold.Chemscore.Metal.Weighted>
-0.0000

> <Gold.Chemscore.Lipo.Weighted>
-11.4614

> <Gold.Chemscore.Internal_Hbond.Weighted>
0.0000

> <Gold.Chemscore.DEClash.Weighted>
0.2979

> <Gold.Chemscore.DEInternal.Weighted>
0.6554

> <Gold.Chemscore.Rot.Weighted>
6.6139

> <Gold.Chemscore.Internal.Correction.Weighted>
   9.000000E+99

> <Gold.Protein.RotatedTorsions>
[ 6907 6896 6895 6894 ] final -135.48 input  -60.11 | X-H torsion
[ 7974 7965 7964 7962 ] final -142.21 input  175.53 | X-H torsion
[ 8008 7997 7996 7995 ] final  -27.30 input   59.86 | X-H torsion
[ 10167 10162 10161 10158 ] final   76.44 input  -65.29 | X-H torsion
[ 10718 10713 10712 10709 ] final  -59.59 input   66.30 | X-H torsion
[ 10763 10752 10751 10750 ] final   92.94 input  -60.55 | X-H torsion
[ 11005 11000 10999 10996 ] final  -13.18 input  -57.11 | X-H torsion

> <Gold.Protein.ActiveResidues>
 VAL166  LYS551  ARG553  GLY616  TRP617  ASP618  TYR619  PRO620  LYS621  CYS622 
 ASP623  PHE694  ASN695  SER759  ASP760  ASP761  ALA762  ILE779  LEU786  VAL792 
 PHE793  MET794  SER795  GLU796  ALA797  LYS798  CYS799  TRP800  GLU811  SER814 

> <Gold.Protein.RotatedAtoms>
  150.9984  133.6080  159.2698 H   0  0  0  0  0  0  0  0  0  0  0  0  # atno 6907 bound_to 6896
  151.3275  135.0833  159.9337 H   0  0  0  0  0  0  0  0  0  0  0  0  # atno 6908 bound_to 6896
  152.5266  133.9620  159.7775 H   0  0  0  0  0  0  0  0  0  0  0  0  # atno 6909 bound_to 6896
  144.8461  140.5986  143.5421 H   0  0  0  0  0  0  0  0  0  0  0  0  # atno 7974 bound_to 7965
  154.4383  140.1876  156.0911 H   0  0  0  0  0  0  0  0  0  0  0  0  # atno 8008 bound_to 7997
  156.0365  140.3324  155.7170 H   0  0  0  0  0  0  0  0  0  0  0  0  # atno 8009 bound_to 7997
  155.5763  140.0617  157.2785 H   0  0  0  0  0  0  0  0  0  0  0  0  # atno 8010 bound_to 7997
  139.9922  144.5749  150.7808 H   0  0  0  0  0  0  0  0  0  0  0  0  # atno 10167 bound_to 10162
  156.1051  130.4181  150.0736 H   0  0  0  0  0  0  0  0  0  0  0  0  # atno 10718 bound_to 10713
  153.2248  135.4343  155.0529 H   0  0  0  0  0  0  0  0  0  0  0  0  # atno 10763 bound_to 10752
  154.8268  135.3365  154.6874 H   0  0  0  0  0  0  0  0  0  0  0  0  # atno 10764 bound_to 10752
  153.7304  135.7011  153.5047 H   0  0  0  0  0  0  0  0  0  0  0  0  # atno 10765 bound_to 10752
  140.7734  133.8420  155.9227 H   0  0  0  0  0  0  0  0  0  0  0  0  # atno 11005 bound_to 11000
  145.4595  139.1514  143.3874 LP  0  0  0  0  0  0  0  0  0  0  0  0  # atno 17320 bound_to 7965
  146.2745  140.4724  142.8801 LP  0  0  0  0  0  0  0  0  0  0  0  0  # atno 17321 bound_to 7965
  140.7450  143.2870  151.3437 LP  0  0  0  0  0  0  0  0  0  0  0  0  # atno 17342 bound_to 10162
  139.6332  144.0681  152.2494 LP  0  0  0  0  0  0  0  0  0  0  0  0  # atno 17343 bound_to 10162
  156.8713  130.9525  151.3609 LP  0  0  0  0  0  0  0  0  0  0  0  0  # atno 17370 bound_to 10713
  157.6226  130.8667  149.9135 LP  0  0  0  0  0  0  0  0  0  0  0  0  # atno 17371 bound_to 10713
  140.9552  134.1727  157.4697 LP  0  0  0  0  0  0  0  0  0  0  0  0  # atno 17394 bound_to 11000
  139.8752  134.9924  156.5595 LP  0  0  0  0  0  0  0  0  0  0  0  0  # atno 17395 bound_to 11000

$$$$
