#       Name:                AV-unprocessed.smi:752
#       Creating user name   scv26
#       Creation time:       Fri Mar 27 00:59:14 2020


#       File generated by GOLD software.
#

@<TRIPOS>MOLECULE
AV-unprocessed.smi:752
    46    47     1
SMALL
NO_CHARGES


@<TRIPOS>ATOM
      1 ****        -4.1337   3.0785  -1.0019 C.3            1 S1                 0.0000
      2 ****        -2.7709   2.3933  -1.1476 C.3            1 S1                 0.0000
      3 ****        -2.1593   2.0477   0.1685 C.2            1 S1                 0.0000
      4 ****        -2.3870   0.8972   0.8070 N.2            1 S1                 0.0000
      5 ****        -1.7045   0.8120   2.0256 C.2            1 S1                 0.0000
      6 ****        -1.7889  -0.4423   2.8480 C.3            1 S1                 0.0000
      7 ****        -0.5820  -1.3256   2.5327 C.2            1 S1                 0.0000
      8 ****         0.3560  -1.3977   3.3263 O.2            1 S1                 0.0000
      9 ****        -0.5991  -1.9491   1.3445 N.am           1 S1                 0.0000
     10 ****         0.5484  -2.6038   0.7283 C.3            1 S1                 0.0000
     11 ****         1.4910  -1.5775   0.0627 C.3            1 S1                 0.0000
     12 ****         2.7350  -2.2627  -0.5334 C.3            1 S1                 0.0000
     13 ****         3.6944  -1.2379  -1.1589 C.3            1 S1                 0.0000
     14 ****         2.9907  -0.3910  -2.2328 C.3            1 S1                 0.0000
     15 ****         1.7131   0.2825  -1.6982 C.3            1 S1                 0.0000
     16 ****         2.0463   1.3129  -0.7884 O.3            1 S1                 0.0000
     17 ****         0.7757  -0.7341  -1.0204 C.3            1 S1                 0.0000
     18 ****        -0.9794   1.9413   2.3173 C.2            1 S1                 0.0000
     19 ****        -1.1089   3.1408   1.0614 S.3            1 S1                 0.0000
     20 ****        -4.5551   3.3179  -1.9782 H              1 S1                 0.0000
     21 ****        -4.0476   4.0084  -0.4392 H              1 S1                 0.0000
     22 ****        -4.8436   2.4358  -0.4808 H              1 S1                 0.0000
     23 ****        -2.8729   1.4825  -1.7386 H              1 S1                 0.0000
     24 ****        -2.0840   3.0426  -1.6909 H              1 S1                 0.0000
     25 ****        -1.8001  -0.2058   3.9126 H              1 S1                 0.0000
     26 ****        -2.7080  -0.9917   2.6394 H              1 S1                 0.0000
     27 ****        -1.4221  -1.8408   0.7691 H              1 S1                 0.0000
     28 ****         1.0860  -3.1928   1.4733 H              1 S1                 0.0000
     29 ****         0.1788  -3.3099  -0.0156 H              1 S1                 0.0000
     30 ****         1.8391  -0.8976   0.8422 H              1 S1                 0.0000
     31 ****         3.2588  -2.8233   0.2418 H              1 S1                 0.0000
     32 ****         2.4323  -2.9891  -1.2889 H              1 S1                 0.0000
     33 ****         4.0920  -0.5868  -0.3792 H              1 S1                 0.0000
     34 ****         4.5511  -1.7514  -1.5959 H              1 S1                 0.0000
     35 ****         3.6766   0.3581  -2.6300 H              1 S1                 0.0000
     36 ****         2.7264  -1.0357  -3.0720 H              1 S1                 0.0000
     37 ****         1.1850   0.7535  -2.5281 H              1 S1                 0.0000
     38 ****         1.2474   1.7186  -0.4879 H              1 S1                 0.0000
     39 ****         0.3700  -1.4030  -1.7804 H              1 S1                 0.0000
     40 ****        -0.0790  -0.2048  -0.5991 H              1 S1                 0.0000
     41 ****        -0.3660   2.1321   3.1856 H              1 S1                 0.0000
     42 ****        -2.9809   0.1748   0.4527 LP             1 S1                 0.0000
     43 ****         0.3297  -0.8776   4.1800 LP             1 S1                 0.0000
     44 ****         1.1443  -1.9764   3.1174 LP             1 S1                 0.0000
     45 ****         2.6190   1.9936  -1.2451 LP             1 S1                 0.0000
     46 ****         2.5423   0.9280  -0.0101 LP             1 S1                 0.0000
@<TRIPOS>BOND
    1    1    2 1     
    2    1   20 1     
    3    1   21 1     
    4    1   22 1     
    5    2    3 1     
    6    2   23 1     
    7    2   24 1     
    8    3   19 1     
    9    3    4 2     
   10    4    5 1     
   11    5    6 1     
   12    5   18 2     
   13    6    7 1     
   14    6   25 1     
   15    6   26 1     
   16    7    8 2     
   17    7    9 am    
   18    9   10 1     
   19    9   27 1     
   20   10   11 1     
   21   10   28 1     
   22   10   29 1     
   23   11   17 1     
   24   11   12 1     
   25   11   30 1     
   26   12   13 1     
   27   12   31 1     
   28   12   32 1     
   29   13   14 1     
   30   13   33 1     
   31   13   34 1     
   32   14   15 1     
   33   14   35 1     
   34   14   36 1     
   35   15   16 1     
   36   15   17 1     
   37   15   37 1     
   38   16   38 1     
   39   17   39 1     
   40   17   40 1     
   41   18   19 1     
   42   18   41 1     
   43    4   42 1     
   44    8   43 1     
   45    8   44 1     
   46   16   45 1     
   47   16   46 1     
@<TRIPOS>SUBSTRUCTURE
      1 S1             1
@<TRIPOS>SET
LONE_PAIRS      STATIC     ATOMS    <user>   **** ""
5 42 43 44 45 46
DONOR_HYDROGENS      STATIC     ATOMS    <user>   **** ""
2 27 38
ATOM$BLUE        STATIC     ATOMS    COLORGROUP SYSTEM
5 42 43 44 45 46
ATOM$RED        STATIC     ATOMS    COLORGROUP SYSTEM
2 27 38
