AV-unprocessed.smi:55|AV-procd|sdf|562|dock6
  -GOLD-   2262016463D 1   1.00000     0.00000
 Structure written by MMmdl.
 31 32  0  0  0  0  0  0  0  0  1 V2000
  150.7840  142.6587  158.8680 C   0  0  0  0  0  0  0  0  0  0  0  0
  150.9135  141.7223  157.6782 C   0  0  0  0  0  0  0  0  0  0  0  0
  150.1076  141.8134  156.5896 C   0  0  0  0  0  0  0  0  0  0  0  0
  150.2007  140.9741  155.4882 N   0  0  0  0  0  0  0  0  0  0  0  0
  149.2685  141.1275  154.3078 C   0  0  1  0  0  0  0  0  0  0  0  0
  148.4434  139.8572  154.0969 C   0  0  0  0  0  0  0  0  0  0  0  0
  147.1001  140.4368  153.7069 C   0  0  1  0  0  0  0  0  0  0  0  0
  146.0554  139.5297  153.9932 O   0  0  0  0  0  0  0  0  0  0  0  0
  147.0336  141.6984  154.5712 C   0  0  2  0  0  0  0  0  0  0  0  0
  146.0950  142.7769  154.0095 C   0  0  0  0  0  0  0  0  0  0  0  0
  144.7647  142.5108  154.3992 O   0  0  0  0  0  0  0  0  0  0  0  0
  148.3791  142.1757  154.5621 O   0  0  0  0  0  0  0  0  0  0  0  0
  151.1693  139.9485  155.4815 C   0  0  0  0  0  0  0  0  0  0  0  0
  151.2969  139.1500  154.5542 O   0  0  0  0  0  0  0  0  0  0  0  0
  151.9994  139.8563  156.5976 N   0  0  0  0  0  0  0  0  0  0  0  0
  151.9472  140.6843  157.7214 C   0  0  0  0  0  0  0  0  0  0  0  0
  152.7362  140.5021  158.6470 O   0  0  0  0  0  0  0  0  0  0  0  0
  149.8627  141.4084  153.4371 H   0  0  0  0  0  0  0  0  0  0  0  0
  147.0971  140.6937  152.6464 H   0  0  0  0  0  0  0  0  0  0  0  0
  146.7534  141.4260  155.5907 H   0  0  0  0  0  0  0  0  0  0  0  0
  152.6962  139.1258  156.5954 H   0  0  0  0  0  0  0  0  0  0  0  0
  149.9974  143.3986  158.7171 H   0  0  0  0  0  0  0  0  0  0  0  0
  151.7186  143.1954  159.0347 H   0  0  0  0  0  0  0  0  0  0  0  0
  150.5455  142.0962  159.7714 H   0  0  0  0  0  0  0  0  0  0  0  0
  149.3496  142.5819  156.5861 H   0  0  0  0  0  0  0  0  0  0  0  0
  148.8889  139.2151  153.3365 H   0  0  0  0  0  0  0  0  0  0  0  0
  148.3712  139.3035  155.0348 H   0  0  0  0  0  0  0  0  0  0  0  0
  145.2959  139.7754  153.4870 H   0  0  0  0  0  0  0  0  0  0  0  0
  146.3958  143.7735  154.3344 H   0  0  0  0  0  0  0  0  0  0  0  0
  146.1234  142.7687  152.9194 H   0  0  0  0  0  0  0  0  0  0  0  0
  144.4536  141.7620  153.9137 H   0  0  0  0  0  0  0  0  0  0  0  0
  1  2  1  0  0  0  0
  1 22  1  0  0  0  0
  1 23  1  0  0  0  0
  1 24  1  0  0  0  0
  2 16  1  0  0  0  0
  2  3  2  0  0  0  0
  3  4  1  0  0  0  0
  3 25  1  0  0  0  0
  4  5  1  0  0  0  0
  4 13  1  0  0  0  0
  5 18  1  0  0  0  0
  5 12  1  0  0  0  0
  5  6  1  0  0  0  0
  6  7  1  0  0  0  0
  6 26  1  0  0  0  0
  6 27  1  0  0  0  0
  7 19  1  0  0  0  0
  7  8  1  0  0  0  0
  7  9  1  0  0  0  0
  8 28  1  0  0  0  0
  9 20  1  0  0  0  0
  9 10  1  0  0  0  0
  9 12  1  0  0  0  0
 10 11  1  0  0  0  0
 10 29  1  0  0  0  0
 10 30  1  0  0  0  0
 11 31  1  0  0  0  0
 13 14  2  0  0  0  0
 13 15  1  0  0  0  0
 15 21  1  0  0  0  0
 15 16  1  0  0  0  0
 16 17  2  0  0  0  0
M  END
> <s_m_source_file>
AV-unprocessed.smi

> <i_m_source_file_index>
55

> <i_lp_mmshare_version>
43012

> <i_f3d_flags>
0

> <s_epik_input>
Tz1jMVtuSF1jKD1PKW4oW2NIXWMxW0NIM10pW0NAQEhdMltDSDJdW0NAQEhdKFtPSF0pW0NAQEhdKE8yKVtDSDJdW09IXQ==

> <s_epik_cmdline>
J2VwaWtfcHl0aG9uJywgJy1waCcsICc3LjAnLCAnLXRuJywgJzgnLCAnLW1hJywgJzIwMCcsICctbWV0YWxfYmluZGluZycsICctaW1hZScsICc8aW5maWxlLm1hZT4nLCAnLW9tYWUnLCAnPG91dGZpbGUubWFlPic=

> <r_lp_tautomer_probability>
0.999537

> <r_epik_Ionization_Penalty>
0.00121888

> <r_epik_Ionization_Penalty_Charging>
0.00121876

> <r_epik_Ionization_Penalty_Neutral>
1.19946e-07

> <r_epik_State_Penalty>
0.000805124

> <r_epik_Charging_Adjusted_Penalty>
0.00202389

> <i_epik_Tot_Q>
0

> <i_epik_Tot_abs_Q>
0

> <r_epik_Metal_State_Penalty>
0.662472

> <b_epik_Metal_Only>
0

> <s_epik_Chemistry_Notes>
This compound contains an acetal/aminal-like group ( X-CH(R)-Y where X, Y are N, S, or O) that may be acid/base labile, releasing an aldehyde.

> <s_lp_Force_Field>
OPLS_2005

> <r_lp_Energy>
25.0544

> <b_lp_Chiralities_Consistent>
1

> <s_lp_Variant>
AV-unprocessed.smi:55-2

> <Gold.Version>
5.8.1

> <Gold.Id.Protein>
6NUR|6NUR_protein|mol2

> <Gold.PLP.Fitness>
35.9761

> <Gold.PLP.PLP>
-28.2015

> <Gold.PLP.part.hbond>
-4.3385

> <Gold.PLP.part.metal>
0.0000

> <Gold.PLP.part.buried>
-1.7049

> <Gold.PLP.part.nonpolar>
-25.4338

> <Gold.PLP.part.repulsive>
2.4921

> <Gold.PLP.ligand.clash>
0.0000

> <Gold.PLP.ligand.torsion>
0.2107

> <Gold.PLP.Chemscore.Hbond>
1.7288

> <Gold.PLP.Chemscore.CHOScore>
1.0000

> <Gold.PLP.Chemscore.Metal>
0.0000

> <Gold.Chemscore.Hbonds>
donor molecule, donor type, donor heavy atom, donor atom, acceptor molecule, acceptor atom, score
      L1  H     8    28       P1 10175  1.00
      L1  H    11    31       P1 10175  0.59
      P1  H  7989  7998       L1    14  0.15
      L1  C     3    25       P1  8028  1.00

> <Gold.PLP.Chemscore.Internal.Correction>
0.0096

> <Gold.Rescore>
     Score         DG    S(hbond)    S(metal)    S(lipo)     H(rot)  DE(clash)    DE(int)     intcor
      5.08      -7.51       1.00        0.00      48.46       2.73       1.32       1.11       ----

> <Gold.Chemscore.Fitness>
5.0803

> <Gold.Chemscore.DG>
-7.5083

> <Gold.Chemscore.ZeroCoef>
-5.4800

> <Gold.Chemscore.Hbond>
0.9986

> <Gold.Chemscore.Metal>
0.0000

> <Gold.Chemscore.Lipo>
48.4596

> <Gold.Chemscore.Internal_Hbond>
0.0000

> <Gold.Chemscore.DEClash>
1.3156

> <Gold.Chemscore.DEInternal>
1.1124

> <Gold.Chemscore.Rot>
2.7253

> <Gold.Chemscore.Internal.Correction>
   9.000000E+99

> <Gold.Chemscore.Hbonds>
donor molecule, donor type, donor heavy atom, donor atom, acceptor molecule, acceptor atom, score
      L1  H     8    28       P1 10175  0.93
      L1  H    11    31       P1 10175  0.04

> <Gold.Chemscore.Hbond.Weighted>
-3.3354

> <Gold.Chemscore.Metal.Weighted>
-0.0000

> <Gold.Chemscore.Lipo.Weighted>
-5.6698

> <Gold.Chemscore.Internal_Hbond.Weighted>
0.0000

> <Gold.Chemscore.DEClash.Weighted>
1.3156

> <Gold.Chemscore.DEInternal.Weighted>
1.1124

> <Gold.Chemscore.Rot.Weighted>
6.9769

> <Gold.Chemscore.Internal.Correction.Weighted>
   9.000000E+99

> <Gold.Protein.RotatedTorsions>
[ 6907 6896 6895 6894 ] final  -56.91 input  -60.11 | X-H torsion
[ 7974 7965 7964 7962 ] final -170.55 input  175.53 | X-H torsion
[ 8008 7997 7996 7995 ] final  109.80 input   59.86 | X-H torsion
[ 10167 10162 10161 10158 ] final -179.14 input  -65.29 | X-H torsion
[ 10718 10713 10712 10709 ] final   94.85 input   66.30 | X-H torsion
[ 10763 10752 10751 10750 ] final  -19.96 input  -60.55 | X-H torsion
[ 11005 11000 10999 10996 ] final  139.16 input  -57.11 | X-H torsion

> <Gold.Protein.ActiveResidues>
 VAL166  LYS551  ARG553  GLY616  TRP617  ASP618  TYR619  PRO620  LYS621  CYS622 
 ASP623  PHE694  ASN695  SER759  ASP760  ASP761  ALA762  ILE779  LEU786  VAL792 
 PHE793  MET794  SER795  GLU796  ALA797  LYS798  CYS799  TRP800  GLU811  SER814 

> <Gold.Protein.RotatedAtoms>
  150.8129  134.7294  159.6703 H   0  0  0  0  0  0  0  0  0  0  0  0  # atno 6907 bound_to 6896
  152.4248  134.5885  159.9977 H   0  0  0  0  0  0  0  0  0  0  0  0  # atno 6908 bound_to 6896
  151.6090  133.3312  159.3099 H   0  0  0  0  0  0  0  0  0  0  0  0  # atno 6909 bound_to 6896
  144.7168  140.2055  143.6333 H   0  0  0  0  0  0  0  0  0  0  0  0  # atno 7974 bound_to 7965
  156.2006  140.3051  155.9519 H   0  0  0  0  0  0  0  0  0  0  0  0  # atno 8008 bound_to 7997
  155.2962  140.0444  157.3043 H   0  0  0  0  0  0  0  0  0  0  0  0  # atno 8009 bound_to 7997
  154.5566  140.2307  155.8409 H   0  0  0  0  0  0  0  0  0  0  0  0  # atno 8010 bound_to 7997
  139.5400  144.2391  152.0874 H   0  0  0  0  0  0  0  0  0  0  0  0  # atno 10167 bound_to 10162
  157.6944  131.0526  150.4249 H   0  0  0  0  0  0  0  0  0  0  0  0  # atno 10718 bound_to 10713
  153.6129  135.6995  153.5340 H   0  0  0  0  0  0  0  0  0  0  0  0  # atno 10763 bound_to 10752
  153.3002  135.4131  155.1245 H   0  0  0  0  0  0  0  0  0  0  0  0  # atno 10764 bound_to 10752
  154.8559  135.3647  154.5668 H   0  0  0  0  0  0  0  0  0  0  0  0  # atno 10765 bound_to 10752
  140.0235  134.9385  157.0522 H   0  0  0  0  0  0  0  0  0  0  0  0  # atno 11005 bound_to 11000
  145.8640  139.2237  143.1700 LP  0  0  0  0  0  0  0  0  0  0  0  0  # atno 17320 bound_to 7965
  146.0147  140.8403  142.9953 LP  0  0  0  0  0  0  0  0  0  0  0  0  # atno 17321 bound_to 7965
  140.1867  144.4791  150.6500 LP  0  0  0  0  0  0  0  0  0  0  0  0  # atno 17342 bound_to 10162
  140.6625  143.2257  151.5822 LP  0  0  0  0  0  0  0  0  0  0  0  0  # atno 17343 bound_to 10162
  156.4621  130.4034  149.6570 LP  0  0  0  0  0  0  0  0  0  0  0  0  # atno 17370 bound_to 10713
  156.3681  130.7516  151.2496 LP  0  0  0  0  0  0  0  0  0  0  0  0  # atno 17371 bound_to 10713
  140.4346  134.1744  155.7170 LP  0  0  0  0  0  0  0  0  0  0  0  0  # atno 17394 bound_to 11000
  141.1788  133.8457  157.1328 LP  0  0  0  0  0  0  0  0  0  0  0  0  # atno 17395 bound_to 11000

$$$$
