AV-unprocessed.smi:1902|AV-procd|sdf|7721|dock3
  -GOLD-   22720 9463D 1   1.00000     0.00000
 Structure written by MMmdl.
 44 45  0  0  0  0  0  0  0  0  2 V2000
  144.0793  133.4187  151.0802 C   0  0  0  0  0  0  0  0  0  0  0  0
  145.3126  134.2766  150.7473 C   0  0  2  0  0  0  0  0  0  0  0  0
  146.6383  133.5584  151.0563 C   0  0  0  0  0  0  0  0  0  0  0  0
  146.9235  133.4870  152.5673 C   0  0  0  0  0  0  0  0  0  0  0  0
  146.9077  134.8384  153.1844 N   0  3  2  0  0  0  0  0  0  0  0  0
  147.3126  134.8080  154.6125 C   0  0  0  0  0  0  0  0  0  0  0  0
  148.8437  134.7856  154.7863 C   0  0  0  0  0  0  0  0  0  0  0  0
  149.4562  136.0269  154.3274 N   0  0  0  0  0  0  0  0  0  0  0  0
  150.4499  136.6719  154.9572 C   0  0  0  0  0  0  0  0  0  0  0  0
  150.9310  136.2861  156.0234 O   0  0  0  0  0  0  0  0  0  0  0  0
  150.9548  137.9565  154.2844 C   0  0  0  0  0  0  0  0  0  0  0  0
  150.6891  139.1708  155.0742 N   0  0  0  0  0  0  0  0  0  0  0  0
  149.3467  139.4394  155.4088 C   0  0  0  0  0  0  0  0  0  0  0  0
  148.9961  140.5189  156.1258 C   0  0  0  0  0  0  0  0  0  0  0  0
  150.0383  141.4196  156.5575 C   0  0  0  0  0  0  0  0  0  0  0  0
  151.3258  141.1707  156.2458 C   0  0  0  0  0  0  0  0  0  0  0  0
  151.7137  139.9910  155.4641 C   0  0  0  0  0  0  0  0  0  0  0  0
  152.8876  139.7532  155.1777 O   0  0  0  0  0  0  0  0  0  0  0  0
  145.6103  135.5287  152.9568 C   0  0  0  0  0  0  0  0  0  0  0  0
  145.2960  135.6441  151.4541 C   0  0  0  0  0  0  0  0  0  0  0  0
  144.0204  133.1748  152.1406 H   0  0  0  0  0  0  0  0  0  0  0  0
  144.0979  132.4792  150.5273 H   0  0  0  0  0  0  0  0  0  0  0  0
  143.1591  133.9374  150.8103 H   0  0  0  0  0  0  0  0  0  0  0  0
  145.2795  134.4600  149.6727 H   0  0  0  0  0  0  0  0  0  0  0  0
  146.6340  132.5557  150.6275 H   0  0  0  0  0  0  0  0  0  0  0  0
  147.4552  134.0915  150.5676 H   0  0  0  0  0  0  0  0  0  0  0  0
  146.1952  132.8463  153.0665 H   0  0  0  0  0  0  0  0  0  0  0  0
  147.9006  133.0265  152.7185 H   0  0  0  0  0  0  0  0  0  0  0  0
  146.8726  135.6545  155.1420 H   0  0  0  0  0  0  0  0  0  0  0  0
  146.9019  133.9100  155.0763 H   0  0  0  0  0  0  0  0  0  0  0  0
  149.1071  134.6066  155.8303 H   0  0  0  0  0  0  0  0  0  0  0  0
  149.2886  133.9745  154.2112 H   0  0  0  0  0  0  0  0  0  0  0  0
  149.1163  136.4126  153.4580 H   0  0  0  0  0  0  0  0  0  0  0  0
  152.0252  137.8688  154.0874 H   0  0  0  0  0  0  0  0  0  0  0  0
  150.4889  138.0282  153.3008 H   0  0  0  0  0  0  0  0  0  0  0  0
  148.6283  138.7145  155.0541 H   0  0  0  0  0  0  0  0  0  0  0  0
  147.9625  140.7072  156.3761 H   0  0  0  0  0  0  0  0  0  0  0  0
  149.7846  142.2968  157.1343 H   0  0  0  0  0  0  0  0  0  0  0  0
  152.0921  141.8551  156.5786 H   0  0  0  0  0  0  0  0  0  0  0  0
  144.8132  134.9917  153.4727 H   0  0  0  0  0  0  0  0  0  0  0  0
  145.6359  136.5302  153.3841 H   0  0  0  0  0  0  0  0  0  0  0  0
  146.0368  136.2949  150.9879 H   0  0  0  0  0  0  0  0  0  0  0  0
  144.3321  136.1327  151.3092 H   0  0  0  0  0  0  0  0  0  0  0  0
  147.6150  135.3730  152.7004 H   0  0  0  0  0  0  0  0  0  0  0  0
  1  2  1  0  0  0  0
  1 21  1  0  0  0  0
  1 22  1  0  0  0  0
  1 23  1  0  0  0  0
  2 20  1  0  0  0  0
  2  3  1  0  0  0  0
  2 24  1  0  0  0  0
  3  4  1  0  0  0  0
  3 25  1  0  0  0  0
  3 26  1  0  0  0  0
  4  5  1  0  0  0  0
  4 27  1  0  0  0  0
  4 28  1  0  0  0  0
  5  6  1  0  0  0  0
  5 19  1  0  0  0  0
  5 44  1  0  0  0  0
  6  7  1  0  0  0  0
  6 29  1  0  0  0  0
  6 30  1  0  0  0  0
  7  8  1  0  0  0  0
  7 31  1  0  0  0  0
  7 32  1  0  0  0  0
  8  9  1  0  0  0  0
  8 33  1  0  0  0  0
  9 10  2  0  0  0  0
  9 11  1  0  0  0  0
 11 12  1  0  0  0  0
 11 34  1  0  0  0  0
 11 35  1  0  0  0  0
 12 17  1  0  0  0  0
 12 13  1  0  0  0  0
 13 14  2  0  0  0  0
 13 36  1  0  0  0  0
 14 15  1  0  0  0  0
 14 37  1  0  0  0  0
 15 16  2  0  0  0  0
 15 38  1  0  0  0  0
 16 17  1  0  0  0  0
 16 39  1  0  0  0  0
 17 18  2  0  0  0  0
 19 20  1  0  0  0  0
 19 40  1  0  0  0  0
 19 41  1  0  0  0  0
 20 42  1  0  0  0  0
 20 43  1  0  0  0  0
M  CHG  1   5   1
M  END
> <s_m_source_file>
AV-unprocessed.smi

> <i_m_source_file_index>
1902

> <i_lp_mmshare_version>
43012

> <i_f3d_flags>
0

> <s_epik_input>
W0NIM11bQ0hdMVtDSDJdW0NIMl1OKFtDSDJdW0NIMl0xKVtDSDJdW0NIMl1bTkhdQyg9TylbQ0gyXW4yW2NIXVtjSF1bY0hdW2NIXWMyPU8=

> <s_epik_cmdline>
J2VwaWtfcHl0aG9uJywgJy1waCcsICc3LjAnLCAnLXRuJywgJzgnLCAnLW1hJywgJzIwMCcsICctbWV0YWxfYmluZGluZycsICctaW1hZScsICc8aW5maWxlLm1hZT4nLCAnLW9tYWUnLCAnPG91dGZpbGUubWFlPic=

> <r_lp_tautomer_probability>
1

> <r_epik_Ionization_Penalty>
0.00156146

> <r_epik_Ionization_Penalty_Charging>
0.00156137

> <r_epik_Ionization_Penalty_Neutral>
8.12891e-08

> <r_epik_State_Penalty>
0.00104868

> <r_epik_Charging_Adjusted_Penalty>
0.00261006

> <i_epik_Tot_Q>
1

> <i_epik_Tot_abs_Q>
1

> <r_epik_Metal_State_Penalty>
-0

> <b_epik_Metal_Only>
0

> <s_lp_Force_Field>
OPLS_2005

> <r_lp_Energy>
27.1486

> <b_lp_Chiralities_Consistent>
1

> <s_lp_Variant>
AV-unprocessed.smi:1902-2

> <Gold.Version>
5.8.1

> <Gold.Id.Protein>
6NUR|6NUR_protein|mol2

> <Gold.PLP.Fitness>
48.5567

> <Gold.PLP.PLP>
-34.4414

> <Gold.PLP.part.hbond>
-5.6003

> <Gold.PLP.part.metal>
0.0000

> <Gold.PLP.part.buried>
-1.5907

> <Gold.PLP.part.nonpolar>
-27.7532

> <Gold.PLP.part.repulsive>
0.1112

> <Gold.PLP.ligand.clash>
0.0000

> <Gold.PLP.ligand.torsion>
0.4611

> <Gold.PLP.Chemscore.Hbond>
4.9913

> <Gold.PLP.Chemscore.CHOScore>
0.0000

> <Gold.PLP.Chemscore.Metal>
0.0000

> <Gold.Chemscore.Hbonds>
donor molecule, donor type, donor heavy atom, donor atom, acceptor molecule, acceptor atom, score
      L1  H     5    44       P1  7948  2.00
      L1  H     8    33       P1  7948  0.93
      P1  H  7997  8009       L1    18  1.00

> <Gold.PLP.Chemscore.Internal.Correction>
0.0638

> <Gold.Rescore>
     Score         DG    S(hbond)    S(metal)    S(lipo)     H(rot)  DE(clash)    DE(int)     intcor
     18.39     -19.71       3.48        0.00      62.91       1.86       0.84       0.47       ----

> <Gold.Chemscore.Fitness>
18.3942

> <Gold.Chemscore.DG>
-19.7088

> <Gold.Chemscore.ZeroCoef>
-5.4800

> <Gold.Chemscore.Hbond>
3.4812

> <Gold.Chemscore.Metal>
0.0000

> <Gold.Chemscore.Lipo>
62.9052

> <Gold.Chemscore.Internal_Hbond>
0.0000

> <Gold.Chemscore.DEClash>
0.8438

> <Gold.Chemscore.DEInternal>
0.4708

> <Gold.Chemscore.Rot>
1.8586

> <Gold.Chemscore.Internal.Correction>
   9.000000E+99

> <Gold.Chemscore.Hbonds>
donor molecule, donor type, donor heavy atom, donor atom, acceptor molecule, acceptor atom, score
      L1  H     5    44       P1  7948  1.00
      L1  H     8    33       P1  7948  0.86
      P1  H  7997  8009       L1    18  1.00

> <Gold.Chemscore.Hbond.Weighted>
-11.6271

> <Gold.Chemscore.Metal.Weighted>
-0.0000

> <Gold.Chemscore.Lipo.Weighted>
-7.3599

> <Gold.Chemscore.Internal_Hbond.Weighted>
0.0000

> <Gold.Chemscore.DEClash.Weighted>
0.8438

> <Gold.Chemscore.DEInternal.Weighted>
0.4708

> <Gold.Chemscore.Rot.Weighted>
4.7581

> <Gold.Chemscore.Internal.Correction.Weighted>
   9.000000E+99

> <Gold.Protein.RotatedTorsions>
[ 6907 6896 6895 6894 ] final  123.24 input  -60.11 | X-H torsion
[ 7974 7965 7964 7962 ] final  144.75 input  175.53 | X-H torsion
[ 8008 7997 7996 7995 ] final -136.69 input   59.86 | X-H torsion
[ 10167 10162 10161 10158 ] final -122.68 input  -65.29 | X-H torsion
[ 10718 10713 10712 10709 ] final   97.96 input   66.30 | X-H torsion
[ 10763 10752 10751 10750 ] final  -27.91 input  -60.55 | X-H torsion
[ 11005 11000 10999 10996 ] final   26.72 input  -57.11 | X-H torsion

> <Gold.Protein.ActiveResidues>
 VAL166  LYS551  ARG553  GLY616  TRP617  ASP618  TYR619  PRO620  LYS621  CYS622 
 ASP623  PHE694  ASN695  SER759  ASP760  ASP761  ALA762  ILE779  LEU786  VAL792 
 PHE793  MET794  SER795  GLU796  ALA797  LYS798  CYS799  TRP800  GLU811  SER814 

> <Gold.Protein.RotatedAtoms>
  152.4178  133.7066  159.6454 H   0  0  0  0  0  0  0  0  0  0  0  0  # atno 6907 bound_to 6896
  150.8054  133.8509  159.3214 H   0  0  0  0  0  0  0  0  0  0  0  0  # atno 6908 bound_to 6896
  151.6234  135.1032  160.0158 H   0  0  0  0  0  0  0  0  0  0  0  0  # atno 6909 bound_to 6896
  144.8809  139.5700  143.5843 H   0  0  0  0  0  0  0  0  0  0  0  0  # atno 7974 bound_to 7965
  155.3994  140.0505  157.3037 H   0  0  0  0  0  0  0  0  0  0  0  0  # atno 8008 bound_to 7997
  154.4998  140.2152  155.9331 H   0  0  0  0  0  0  0  0  0  0  0  0  # atno 8009 bound_to 7997
  156.1452  140.3146  155.8564 H   0  0  0  0  0  0  0  0  0  0  0  0  # atno 8010 bound_to 7997
  140.0116  143.5436  152.2260 H   0  0  0  0  0  0  0  0  0  0  0  0  # atno 10167 bound_to 10162
  157.6904  131.0625  150.4723 H   0  0  0  0  0  0  0  0  0  0  0  0  # atno 10718 bound_to 10713
  153.7398  135.6933  153.4969 H   0  0  0  0  0  0  0  0  0  0  0  0  # atno 10763 bound_to 10752
  153.2077  135.4414  155.0341 H   0  0  0  0  0  0  0  0  0  0  0  0  # atno 10764 bound_to 10752
  154.8224  135.3429  154.6924 H   0  0  0  0  0  0  0  0  0  0  0  0  # atno 10765 bound_to 10752
  140.3339  134.2407  155.7698 H   0  0  0  0  0  0  0  0  0  0  0  0  # atno 11005 bound_to 11000
  146.2994  139.7378  142.9102 LP  0  0  0  0  0  0  0  0  0  0  0  0  # atno 17320 bound_to 7965
  145.3955  141.0378  143.3100 LP  0  0  0  0  0  0  0  0  0  0  0  0  # atno 17321 bound_to 7965
  139.6201  144.7627  151.2759 LP  0  0  0  0  0  0  0  0  0  0  0  0  # atno 17342 bound_to 10162
  140.7379  143.6664  150.8119 LP  0  0  0  0  0  0  0  0  0  0  0  0  # atno 17343 bound_to 10162
  156.5060  130.4128  149.6327 LP  0  0  0  0  0  0  0  0  0  0  0  0  # atno 17370 bound_to 10713
  156.3284  130.7318  151.2243 LP  0  0  0  0  0  0  0  0  0  0  0  0  # atno 17371 bound_to 10713
  141.2056  133.7855  157.0223 LP  0  0  0  0  0  0  0  0  0  0  0  0  # atno 17394 bound_to 11000
  140.0837  134.9633  157.1666 LP  0  0  0  0  0  0  0  0  0  0  0  0  # atno 17395 bound_to 11000

$$$$
