AV-unprocessed.smi:185|AV-procd|sdf|1465|dock3
  -GOLD-   2262019273D 1   1.00000     0.00000
 Structure written by MMmdl.
 53 56  0  0  0  0  0  0  0  0  1 V2000
  152.9800  138.3735  159.1861 C   0  0  0  0  0  0  0  0  0  0  0  0
  152.5195  139.3930  158.2465 N   0  0  0  0  0  0  0  0  0  0  0  0
  152.1785  140.6984  158.8100 C   0  0  0  0  0  0  0  0  0  0  0  0
  153.3077  141.2838  159.6805 C   0  0  0  0  0  0  0  0  0  0  0  0
  152.7970  142.2945  160.6008 N   0  0  0  0  0  0  0  0  0  0  0  0
  151.8885  143.3313  160.1410 C   0  0  0  0  0  0  0  0  0  0  0  0
  151.7652  144.3066  161.3210 C   0  0  0  0  0  0  0  0  0  0  0  0
  152.3766  143.5847  162.5271 C   0  0  0  0  0  0  0  0  0  0  0  0
  153.0942  142.4008  161.9017 C   0  0  0  0  0  0  0  0  0  0  0  0
  153.8432  141.6612  162.5394 O   0  0  0  0  0  0  0  0  0  0  0  0
  151.8346  138.9847  157.1396 C   0  0  0  0  0  0  0  0  0  0  0  0
  151.8918  137.6748  156.7739 N   0  0  0  0  0  0  0  0  0  0  0  0
  151.2004  137.2266  155.7229 C   0  0  0  0  0  0  0  0  0  0  0  0
  150.3937  137.9040  154.9066 N   0  0  0  0  0  0  0  0  0  0  0  0
  150.3372  139.2214  155.2518 C   0  0  0  0  0  0  0  0  0  0  0  0
  151.0277  139.8437  156.3326 C   0  0  0  0  0  0  0  0  0  0  0  0
  150.7412  141.2050  156.3393 N   0  0  0  0  0  0  0  0  0  0  0  0
  149.9115  141.3706  155.3477 C   0  0  0  0  0  0  0  0  0  0  0  0
  149.6011  140.2272  154.6498 N   0  0  0  0  0  0  0  0  0  0  0  0
  148.6944  140.1194  153.5173 C   0  0  0  0  0  0  0  0  0  0  0  0
  147.2677  140.6523  153.8048 C   0  0  0  0  0  0  0  0  0  0  0  0
  146.4774  140.4192  152.6519 O   0  0  0  0  0  0  0  0  0  0  0  0
  146.5964  139.9451  155.0035 C   0  0  0  0  0  0  0  0  0  0  0  0
  145.2757  140.6219  155.4112 C   0  0  0  0  0  0  0  0  0  0  0  0
  145.4930  142.0028  155.6738 O   0  0  0  0  0  0  0  0  0  0  0  0
  145.9409  142.7158  154.5275 C   0  0  0  0  0  0  0  0  0  0  0  0
  147.3053  142.1712  154.0681 C   0  0  0  0  0  0  0  0  0  0  0  0
  153.5414  137.5937  158.6700 H   0  0  0  0  0  0  0  0  0  0  0  0
  152.1375  137.9132  159.7039 H   0  0  0  0  0  0  0  0  0  0  0  0
  153.6391  138.8106  159.9366 H   0  0  0  0  0  0  0  0  0  0  0  0
  151.9698  141.3884  157.9918 H   0  0  0  0  0  0  0  0  0  0  0  0
  151.2463  140.6431  159.3665 H   0  0  0  0  0  0  0  0  0  0  0  0
  153.7892  140.4999  160.2672 H   0  0  0  0  0  0  0  0  0  0  0  0
  154.0860  141.7127  159.0481 H   0  0  0  0  0  0  0  0  0  0  0  0
  152.2684  143.8276  159.2473 H   0  0  0  0  0  0  0  0  0  0  0  0
  150.9238  142.8829  159.8998 H   0  0  0  0  0  0  0  0  0  0  0  0
  152.3258  145.2190  161.1130 H   0  0  0  0  0  0  0  0  0  0  0  0
  150.7283  144.5933  161.5000 H   0  0  0  0  0  0  0  0  0  0  0  0
  153.0656  144.2208  163.0839 H   0  0  0  0  0  0  0  0  0  0  0  0
  151.6053  143.2223  163.2073 H   0  0  0  0  0  0  0  0  0  0  0  0
  151.3024  136.1727  155.5107 H   0  0  0  0  0  0  0  0  0  0  0  0
  149.4917  142.3358  155.1046 H   0  0  0  0  0  0  0  0  0  0  0  0
  149.1358  140.6683  152.6845 H   0  0  0  0  0  0  0  0  0  0  0  0
  148.6557  139.0750  153.2042 H   0  0  0  0  0  0  0  0  0  0  0  0
  145.5693  140.5491  152.8782 H   0  0  0  0  0  0  0  0  0  0  0  0
  146.4108  138.8929  154.7827 H   0  0  0  0  0  0  0  0  0  0  0  0
  147.2745  139.9647  155.8576 H   0  0  0  0  0  0  0  0  0  0  0  0
  144.5174  140.5022  154.6359 H   0  0  0  0  0  0  0  0  0  0  0  0
  144.8805  140.1522  156.3119 H   0  0  0  0  0  0  0  0  0  0  0  0
  145.2002  142.6485  153.7293 H   0  0  0  0  0  0  0  0  0  0  0  0
  146.0298  143.7713  154.7853 H   0  0  0  0  0  0  0  0  0  0  0  0
  148.0396  142.3843  154.8463 H   0  0  0  0  0  0  0  0  0  0  0  0
  147.6407  142.7057  153.1782 H   0  0  0  0  0  0  0  0  0  0  0  0
  1  2  1  0  0  0  0
  1 28  1  0  0  0  0
  1 29  1  0  0  0  0
  1 30  1  0  0  0  0
  2  3  1  0  0  0  0
  2 11  1  0  0  0  0
  3  4  1  0  0  0  0
  3 31  1  0  0  0  0
  3 32  1  0  0  0  0
  4  5  1  0  0  0  0
  4 33  1  0  0  0  0
  4 34  1  0  0  0  0
  5  9  1  0  0  0  0
  5  6  1  0  0  0  0
  6  7  1  0  0  0  0
  6 35  1  0  0  0  0
  6 36  1  0  0  0  0
  7  8  1  0  0  0  0
  7 37  1  0  0  0  0
  7 38  1  0  0  0  0
  8  9  1  0  0  0  0
  8 39  1  0  0  0  0
  8 40  1  0  0  0  0
  9 10  2  0  0  0  0
 11 16  1  0  0  0  0
 11 12  2  0  0  0  0
 12 13  1  0  0  0  0
 13 14  2  0  0  0  0
 13 41  1  0  0  0  0
 14 15  1  0  0  0  0
 15 19  1  0  0  0  0
 15 16  2  0  0  0  0
 16 17  1  0  0  0  0
 17 18  2  0  0  0  0
 18 19  1  0  0  0  0
 18 42  1  0  0  0  0
 19 20  1  0  0  0  0
 20 21  1  0  0  0  0
 20 43  1  0  0  0  0
 20 44  1  0  0  0  0
 21 27  1  0  0  0  0
 21 22  1  0  0  0  0
 21 23  1  0  0  0  0
 22 45  1  0  0  0  0
 23 24  1  0  0  0  0
 23 46  1  0  0  0  0
 23 47  1  0  0  0  0
 24 25  1  0  0  0  0
 24 48  1  0  0  0  0
 24 49  1  0  0  0  0
 25 26  1  0  0  0  0
 26 27  1  0  0  0  0
 26 50  1  0  0  0  0
 26 51  1  0  0  0  0
 27 52  1  0  0  0  0
 27 53  1  0  0  0  0
M  END
> <s_m_source_file>
AV-unprocessed.smi

> <i_m_source_file_index>
185

> <i_lp_mmshare_version>
43012

> <i_f3d_flags>
0

> <s_epik_input>
Tz1DMVtDSDJdW0NIMl1bQ0gyXU4xW0NIMl1bQ0gyXU4oW0NIM10pYyhuW2NIXW4yKWMoYzIzKW5bY0hdbjNbQ0gyXUM0KFtPSF0pW0NIMl1bQ0gyXU9bQ0gyXVtDSDJdNA==

> <s_epik_cmdline>
J2VwaWtfcHl0aG9uJywgJy1waCcsICc3LjAnLCAnLXRuJywgJzgnLCAnLW1hJywgJzIwMCcsICctbWV0YWxfYmluZGluZycsICctaW1hZScsICc8aW5maWxlLm1hZT4nLCAnLW9tYWUnLCAnPG91dGZpbGUubWFlPic=

> <r_lp_tautomer_probability>
1

> <r_epik_Ionization_Penalty>
0.00150291

> <r_epik_Ionization_Penalty_Charging>
0

> <r_epik_Ionization_Penalty_Neutral>
0.00150291

> <r_epik_State_Penalty>
0.000836254

> <r_epik_Charging_Adjusted_Penalty>
0.000836254

> <i_epik_Tot_Q>
0

> <i_epik_Tot_abs_Q>
0

> <r_epik_Metal_State_Penalty>
-0

> <b_epik_Metal_Only>
0

> <s_lp_Force_Field>
OPLS_2005

> <r_lp_Energy>
31.6945

> <b_lp_Chiralities_Consistent>
1

> <s_lp_Variant>
AV-unprocessed.smi:185-1

> <Gold.Version>
5.8.1

> <Gold.Id.Protein>
6NUR|6NUR_protein|mol2

> <Gold.PLP.Fitness>
54.8175

> <Gold.PLP.PLP>
-49.3074

> <Gold.PLP.part.hbond>
-1.8212

> <Gold.PLP.part.metal>
0.0000

> <Gold.PLP.part.buried>
-1.9695

> <Gold.PLP.part.nonpolar>
-46.0107

> <Gold.PLP.part.repulsive>
0.3625

> <Gold.PLP.ligand.clash>
0.0000

> <Gold.PLP.ligand.torsion>
0.5914

> <Gold.PLP.Chemscore.Hbond>
1.0000

> <Gold.PLP.Chemscore.CHOScore>
1.0000

> <Gold.PLP.Chemscore.Metal>
0.0000

> <Gold.Chemscore.Hbonds>
donor molecule, donor type, donor heavy atom, donor atom, acceptor molecule, acceptor atom, score
      L1  H    22    45       P1 10175  1.00
      L1  C    18    42       P1  8028  1.00

> <Gold.PLP.Chemscore.Internal.Correction>
0.6928

> <Gold.Rescore>
     Score         DG    S(hbond)    S(metal)    S(lipo)     H(rot)  DE(clash)    DE(int)     intcor
      9.23     -12.96       0.91        0.00      97.63       2.73       1.97       1.76       ----

> <Gold.Chemscore.Fitness>
9.2344

> <Gold.Chemscore.DG>
-12.9594

> <Gold.Chemscore.ZeroCoef>
-5.4800

> <Gold.Chemscore.Hbond>
0.9133

> <Gold.Chemscore.Metal>
0.0000

> <Gold.Chemscore.Lipo>
97.6256

> <Gold.Chemscore.Internal_Hbond>
0.0000

> <Gold.Chemscore.DEClash>
1.9690

> <Gold.Chemscore.DEInternal>
1.7560

> <Gold.Chemscore.Rot>
2.7318

> <Gold.Chemscore.Internal.Correction>
   9.000000E+99

> <Gold.Chemscore.Hbonds>
donor molecule, donor type, donor heavy atom, donor atom, acceptor molecule, acceptor atom, score
      L1  H    22    45       P1 10175  0.71

> <Gold.Chemscore.Hbond.Weighted>
-3.0505

> <Gold.Chemscore.Metal.Weighted>
-0.0000

> <Gold.Chemscore.Lipo.Weighted>
-11.4222

> <Gold.Chemscore.Internal_Hbond.Weighted>
0.0000

> <Gold.Chemscore.DEClash.Weighted>
1.9690

> <Gold.Chemscore.DEInternal.Weighted>
1.7560

> <Gold.Chemscore.Rot.Weighted>
6.9933

> <Gold.Chemscore.Internal.Correction.Weighted>
   9.000000E+99

> <Gold.Protein.RotatedTorsions>
[ 6907 6896 6895 6894 ] final  143.09 input  -60.11 | X-H torsion
[ 7974 7965 7964 7962 ] final   87.51 input  175.53 | X-H torsion
[ 8008 7997 7996 7995 ] final -162.17 input   59.86 | X-H torsion
[ 10167 10162 10161 10158 ] final   17.98 input  -65.29 | X-H torsion
[ 10718 10713 10712 10709 ] final  145.52 input   66.30 | X-H torsion
[ 10763 10752 10751 10750 ] final  -34.54 input  -60.55 | X-H torsion
[ 11005 11000 10999 10996 ] final  -46.62 input  -57.11 | X-H torsion

> <Gold.Protein.ActiveResidues>
 VAL166  LYS551  ARG553  GLY616  TRP617  ASP618  TYR619  PRO620  LYS621  CYS622 
 ASP623  PHE694  ASN695  SER759  ASP760  ASP761  ALA762  ILE779  LEU786  VAL792 
 PHE793  MET794  SER795  GLU796  ALA797  LYS798  CYS799  TRP800  GLU811  SER814 

> <Gold.Protein.RotatedAtoms>
  152.2106  133.4908  159.5107 H   0  0  0  0  0  0  0  0  0  0  0  0  # atno 6907 bound_to 6896
  150.6989  134.1472  159.4136 H   0  0  0  0  0  0  0  0  0  0  0  0  # atno 6908 bound_to 6896
  151.9391  135.0221  160.0585 H   0  0  0  0  0  0  0  0  0  0  0  0  # atno 6909 bound_to 6896
  145.5580  139.2301  143.2475 H   0  0  0  0  0  0  0  0  0  0  0  0  # atno 7974 bound_to 7965
  155.8029  140.0894  157.1947 H   0  0  0  0  0  0  0  0  0  0  0  0  # atno 8008 bound_to 7997
  154.3981  140.1469  156.3355 H   0  0  0  0  0  0  0  0  0  0  0  0  # atno 8009 bound_to 7997
  155.8444  140.3437  155.5655 H   0  0  0  0  0  0  0  0  0  0  0  0  # atno 8010 bound_to 7997
  140.5687  143.9202  150.6696 H   0  0  0  0  0  0  0  0  0  0  0  0  # atno 10167 bound_to 10162
  157.3443  131.0940  151.1055 H   0  0  0  0  0  0  0  0  0  0  0  0  # atno 10718 bound_to 10713
  153.8484  135.6851  153.4795 H   0  0  0  0  0  0  0  0  0  0  0  0  # atno 10763 bound_to 10752
  153.1411  135.4657  154.9496 H   0  0  0  0  0  0  0  0  0  0  0  0  # atno 10764 bound_to 10752
  154.7813  135.3270  154.7931 H   0  0  0  0  0  0  0  0  0  0  0  0  # atno 10765 bound_to 10752
  141.0590  133.6715  156.3181 H   0  0  0  0  0  0  0  0  0  0  0  0  # atno 11005 bound_to 11000
  146.1871  140.6404  142.9162 LP  0  0  0  0  0  0  0  0  0  0  0  0  # atno 17320 bound_to 7965
  144.7497  140.5159  143.6811 LP  0  0  0  0  0  0  0  0  0  0  0  0  # atno 17321 bound_to 7965
  140.2672  143.3482  152.1270 LP  0  0  0  0  0  0  0  0  0  0  0  0  # atno 17342 bound_to 10162
  139.5106  144.6887  151.5819 LP  0  0  0  0  0  0  0  0  0  0  0  0  # atno 17343 bound_to 10162
  157.2256  130.6501  149.5828 LP  0  0  0  0  0  0  0  0  0  0  0  0  # atno 17370 bound_to 10713
  155.9712  130.4615  150.6112 LP  0  0  0  0  0  0  0  0  0  0  0  0  # atno 17371 bound_to 10713
  140.5906  134.5654  157.5499 LP  0  0  0  0  0  0  0  0  0  0  0  0  # atno 17394 bound_to 11000
  139.9416  134.7777  156.0665 LP  0  0  0  0  0  0  0  0  0  0  0  0  # atno 17395 bound_to 11000

$$$$
