#       Name:                AV-unprocessed.smi:1414
#       Creating user name   scv26
#       Creation time:       Fri Mar 27 05:40:02 2020


#       File generated by GOLD software.
#

@<TRIPOS>MOLECULE
AV-unprocessed.smi:1414
    50    51     1
SMALL
NO_CHARGES


@<TRIPOS>ATOM
      1 ****        -3.1551   2.3989  -1.5231 C.3            1 S1                 0.0000
      2 ****        -2.8169   1.4029  -0.4087 C.3            1 S1                 0.0000
      3 ****        -3.6199   0.0934  -0.5400 C.3            1 S1                 0.0000
      4 ****        -3.4002  -0.7863   0.6205 N.pl3          1 S1                 0.0000
      5 ****        -2.3557  -2.1688   0.4756 S.o2           1 S1                 0.0000
      6 ****        -2.5237  -2.9904   1.6842 O.2            1 S1                 0.0000
      7 ****        -2.5846  -2.7726  -0.8461 O.2            1 S1                 0.0000
      8 ****        -0.6570  -1.4557   0.4980 C.3            1 S1                 0.0000
      9 ****         0.3990  -2.5582   0.3307 C.3            1 S1                 0.0000
     10 ****         1.7534  -2.0197   0.3917 N.am           1 S1                 0.0000
     11 ****         2.3768  -1.3888  -0.6135 C.2            1 S1                 0.0000
     12 ****         1.8605  -1.1930  -1.7134 O.2            1 S1                 0.0000
     13 ****         3.6212  -1.0235  -0.2599 N.am           1 S1                 0.0000
     14 ****         4.5955  -0.3290  -1.0278 C.ar           1 S1                 0.0000
     15 ****         4.3016   0.4634  -2.1642 C.ar           1 S1                 0.0000
     16 ****         5.3575   1.1153  -2.8299 C.ar           1 S1                 0.0000
     17 ****         6.6658   0.9575  -2.3332 C.ar           1 S1                 0.0000
     18 ****         6.9590   0.2170  -1.2437 N.ar           1 S1                 0.0000
     19 ****         5.9414  -0.4043  -0.6101 C.ar           1 S1                 0.0000
     20 ****        -3.5385  -0.1051   1.9184 C.3            1 S1                 0.0000
     21 ****        -2.7345   1.2098   1.9454 C.3            1 S1                 0.0000
     22 ****        -2.9851   2.0106   3.2277 C.3            1 S1                 0.0000
     23 ****        -3.1120   2.0181   0.8385 O.3            1 S1                 0.0000
     24 ****        -2.9344   1.9790  -2.5046 H              1 S1                 0.0000
     25 ****        -2.5738   3.3149  -1.4158 H              1 S1                 0.0000
     26 ****        -4.2110   2.6702  -1.5040 H              1 S1                 0.0000
     27 ****        -1.7483   1.1943  -0.4568 H              1 S1                 0.0000
     28 ****        -4.6852   0.3207  -0.5955 H              1 S1                 0.0000
     29 ****        -3.3642  -0.4237  -1.4646 H              1 S1                 0.0000
     30 ****        -0.5814  -0.7316  -0.3116 H              1 S1                 0.0000
     31 ****        -0.5166  -0.9311   1.4419 H              1 S1                 0.0000
     32 ****         0.2922  -3.2963   1.1257 H              1 S1                 0.0000
     33 ****         0.2502  -3.0915  -0.6098 H              1 S1                 0.0000
     34 ****         2.2541  -2.1449   1.2595 H              1 S1                 0.0000
     35 ****         3.9271  -1.3234   0.6541 H              1 S1                 0.0000
     36 ****         3.2958   0.5966  -2.5298 H              1 S1                 0.0000
     37 ****         5.1675   1.7258  -3.7002 H              1 S1                 0.0000
     38 ****         7.4977   1.4440  -2.8205 H              1 S1                 0.0000
     39 ****         6.2130  -0.9853   0.2593 H              1 S1                 0.0000
     40 ****        -4.5960   0.1078   2.0790 H              1 S1                 0.0000
     41 ****        -3.2272  -0.7632   2.7294 H              1 S1                 0.0000
     42 ****        -1.6670   0.9981   1.8824 H              1 S1                 0.0000
     43 ****        -2.7029   1.4366   4.1106 H              1 S1                 0.0000
     44 ****        -4.0368   2.2814   3.3258 H              1 S1                 0.0000
     45 ****        -2.4028   2.9321   3.2305 H              1 S1                 0.0000
     46 ****         0.9294  -1.5108  -1.8924 LP             1 S1                 0.0000
     47 ****         2.3722  -0.7162  -2.4282 LP             1 S1                 0.0000
     48 ****         7.9000   0.1312  -0.9162 LP             1 S1                 0.0000
     49 ****        -4.0960   2.1894   0.8870 LP             1 S1                 0.0000
     50 ****        -2.6193   2.8866   0.8925 LP             1 S1                 0.0000
@<TRIPOS>BOND
    1    1    2 1     
    2    1   24 1     
    3    1   25 1     
    4    1   26 1     
    5    2   23 1     
    6    2    3 1     
    7    2   27 1     
    8    3    4 1     
    9    3   28 1     
   10    3   29 1     
   11    4    5 1     
   12    4   20 1     
   13    5    6 2     
   14    5    7 2     
   15    5    8 1     
   16    8    9 1     
   17    8   30 1     
   18    8   31 1     
   19    9   10 1     
   20    9   32 1     
   21    9   33 1     
   22   10   11 am    
   23   10   34 1     
   24   11   12 2     
   25   11   13 am    
   26   13   14 1     
   27   13   35 1     
   28   14   19 ar    
   29   14   15 ar    
   30   15   16 ar    
   31   15   36 1     
   32   16   17 ar    
   33   16   37 1     
   34   17   18 ar    
   35   17   38 1     
   36   18   19 ar    
   37   19   39 1     
   38   20   21 1     
   39   20   40 1     
   40   20   41 1     
   41   21   22 1     
   42   21   23 1     
   43   21   42 1     
   44   22   43 1     
   45   22   44 1     
   46   22   45 1     
   47   12   46 1     
   48   12   47 1     
   49   18   48 1     
   50   23   49 1     
   51   23   50 1     
@<TRIPOS>SUBSTRUCTURE
      1 S1             1
@<TRIPOS>SET
LONE_PAIRS      STATIC     ATOMS    <user>   **** ""
7 6 7 46 47 48 49 50
DONOR_HYDROGENS      STATIC     ATOMS    <user>   **** ""
2 34 35
ATOM$BLUE        STATIC     ATOMS    COLORGROUP SYSTEM
7 6 7 46 47 48 49 50
ATOM$RED        STATIC     ATOMS    COLORGROUP SYSTEM
2 34 35
