AV-unprocessed.smi:2776|AV-procd|sdf|10706|dock8
  -GOLD-   2272015143D 1   1.00000     0.00000
 Structure written by MMmdl.
 26 27  0  0  0  0  0  0  0  0  2 V2000
  152.1093  139.2672  154.7202 O   0  0  0  0  0  0  0  0  0  0  0  0
  151.1828  139.0376  155.7648 C   0  0  2  0  0  0  0  0  0  0  0  0
  151.6598  139.7364  157.0551 C   0  0  0  0  0  0  0  0  0  0  0  0
  151.3255  141.1679  157.0858 N   0  0  0  0  0  0  0  0  0  0  0  0
  150.6954  141.9322  156.1528 C   0  0  0  0  0  0  0  0  0  0  0  0
  150.6203  143.2009  156.6420 N   0  3  0  0  0  0  0  0  0  0  0  0
  151.2124  143.2491  157.9059 C   0  0  0  0  0  0  0  0  0  0  0  0
  151.3811  144.3074  158.7931 C   0  0  0  0  0  0  0  0  0  0  0  0
  152.0351  144.0191  160.0090 C   0  0  0  0  0  0  0  0  0  0  0  0
  152.2260  145.0133  160.9081 F   0  0  0  0  0  0  0  0  0  0  0  0
  152.4941  142.7179  160.3047 C   0  0  0  0  0  0  0  0  0  0  0  0
  153.1195  142.4842  161.4827 F   0  0  0  0  0  0  0  0  0  0  0  0
  152.3158  141.6527  159.3974 C   0  0  0  0  0  0  0  0  0  0  0  0
  151.6678  141.9462  158.1982 C   0  0  0  0  0  0  0  0  0  0  0  0
  150.9890  137.5194  155.9421 C   0  0  0  0  0  0  0  0  0  0  0  0
  152.0855  136.9790  156.4743 F   0  0  0  0  0  0  0  0  0  0  0  0
  149.9390  137.2602  156.7221 F   0  0  0  0  0  0  0  0  0  0  0  0
  150.7870  136.9553  154.7515 F   0  0  0  0  0  0  0  0  0  0  0  0
  152.4734  138.4354  154.4566 H   0  0  0  0  0  0  0  0  0  0  0  0
  150.2327  139.4767  155.4575 H   0  0  0  0  0  0  0  0  0  0  0  0
  151.1836  139.2793  157.9230 H   0  0  0  0  0  0  0  0  0  0  0  0
  152.7335  139.6150  157.1992 H   0  0  0  0  0  0  0  0  0  0  0  0
  150.3228  141.5935  155.1967 H   0  0  0  0  0  0  0  0  0  0  0  0
  151.0328  145.3050  158.5702 H   0  0  0  0  0  0  0  0  0  0  0  0
  152.6766  140.6626  159.6329 H   0  0  0  0  0  0  0  0  0  0  0  0
  150.1965  143.9751  156.1465 H   0  0  0  0  0  0  0  0  0  0  0  0
  1  2  1  0  0  0  0
  1 19  1  0  0  0  0
  2  3  1  0  0  0  0
  2 15  1  0  0  0  0
  2 20  1  0  0  0  0
  3  4  1  0  0  0  0
  3 21  1  0  0  0  0
  3 22  1  0  0  0  0
  4 14  1  0  0  0  0
  4  5  1  0  0  0  0
  5  6  2  0  0  0  0
  5 23  1  0  0  0  0
  6  7  1  0  0  0  0
  6 26  1  0  0  0  0
  7 14  2  0  0  0  0
  7  8  1  0  0  0  0
  8  9  2  0  0  0  0
  8 24  1  0  0  0  0
  9 10  1  0  0  0  0
  9 11  1  0  0  0  0
 11 12  1  0  0  0  0
 11 13  2  0  0  0  0
 13 14  1  0  0  0  0
 13 25  1  0  0  0  0
 15 16  1  0  0  0  0
 15 17  1  0  0  0  0
 15 18  1  0  0  0  0
M  CHG  1   6   1
M  END
> <s_m_source_file>
AV-unprocessed.smi

> <i_m_source_file_index>
2776

> <i_lp_mmshare_version>
43012

> <i_f3d_flags>
0

> <s_epik_input>
RkMoRikoRilbQ0BIXShbT0hdKVtDSDJdbihbY0hdbjEpYyhjMTIpW2NIXWMoRiljKEYpW2NIXTI=

> <s_epik_cmdline>
J2VwaWtfcHl0aG9uJywgJy1waCcsICc3LjAnLCAnLXRuJywgJzgnLCAnLW1hJywgJzIwMCcsICctbWV0YWxfYmluZGluZycsICctaW1hZScsICc8aW5maWxlLm1hZT4nLCAnLW9tYWUnLCAnPG91dGZpbGUubWFlPic=

> <r_epik_Ionization_Penalty>
2.38424

> <r_epik_Ionization_Penalty_Charging>
2.37244

> <r_epik_Ionization_Penalty_Neutral>
0.0117937

> <r_epik_State_Penalty>
2.52832

> <r_epik_Charging_Adjusted_Penalty>
4.90076

> <i_epik_Tot_Q>
1

> <i_epik_Tot_abs_Q>
1

> <r_epik_Metal_State_Penalty>
6.61271

> <b_epik_Metal_Only>
0

> <s_lp_Force_Field>
OPLS_2005

> <r_lp_Energy>
13.8942

> <b_lp_Chiralities_Consistent>
1

> <s_lp_Variant>
AV-unprocessed.smi:2776-3

> <Gold.Version>
5.8.1

> <Gold.Id.Protein>
6NUR|6NUR_protein|mol2

> <Gold.PLP.Fitness>
46.5917

> <Gold.PLP.PLP>
-38.8974

> <Gold.PLP.part.hbond>
-1.8947

> <Gold.PLP.part.metal>
0.0000

> <Gold.PLP.part.buried>
-5.2700

> <Gold.PLP.part.nonpolar>
-32.2387

> <Gold.PLP.part.repulsive>
0.0592

> <Gold.PLP.ligand.clash>
0.0000

> <Gold.PLP.ligand.torsion>
0.4070

> <Gold.PLP.Chemscore.Hbond>
2.8320

> <Gold.PLP.Chemscore.CHOScore>
0.0000

> <Gold.PLP.Chemscore.Metal>
0.0000

> <Gold.Chemscore.Hbonds>
donor molecule, donor type, donor heavy atom, donor atom, acceptor molecule, acceptor atom, score
      L1  H     6    26       P1  8028  2.00
      P1  H  7989  7998       L1     1  0.81

> <Gold.PLP.Chemscore.Internal.Correction>
0.0122

> <Gold.Rescore>
     Score         DG    S(hbond)    S(metal)    S(lipo)     H(rot)  DE(clash)    DE(int)     intcor
     14.54     -15.14       1.93        0.00      73.84       2.12       0.05       0.55       ----

> <Gold.Chemscore.Fitness>
14.5450

> <Gold.Chemscore.DG>
-15.1392

> <Gold.Chemscore.ZeroCoef>
-5.4800

> <Gold.Chemscore.Hbond>
1.9281

> <Gold.Chemscore.Metal>
0.0000

> <Gold.Chemscore.Lipo>
73.8410

> <Gold.Chemscore.Internal_Hbond>
0.0000

> <Gold.Chemscore.DEClash>
0.0470

> <Gold.Chemscore.DEInternal>
0.5472

> <Gold.Chemscore.Rot>
2.1173

> <Gold.Chemscore.Internal.Correction>
   9.000000E+99

> <Gold.Chemscore.Hbonds>
donor molecule, donor type, donor heavy atom, donor atom, acceptor molecule, acceptor atom, score
      L1  H     6    26       P1  8028  0.91
      P1  H  7989  7998       L1     1  0.71

> <Gold.Chemscore.Hbond.Weighted>
-6.4400

> <Gold.Chemscore.Metal.Weighted>
-0.0000

> <Gold.Chemscore.Lipo.Weighted>
-8.6394

> <Gold.Chemscore.Internal_Hbond.Weighted>
0.0000

> <Gold.Chemscore.DEClash.Weighted>
0.0470

> <Gold.Chemscore.DEInternal.Weighted>
0.5472

> <Gold.Chemscore.Rot.Weighted>
5.4202

> <Gold.Chemscore.Internal.Correction.Weighted>
   9.000000E+99

> <Gold.Protein.RotatedTorsions>
[ 6907 6896 6895 6894 ] final -121.14 input  -60.11 | X-H torsion
[ 7974 7965 7964 7962 ] final -123.88 input  175.53 | X-H torsion
[ 8008 7997 7996 7995 ] final  128.12 input   59.86 | X-H torsion
[ 10167 10162 10161 10158 ] final  158.33 input  -65.29 | X-H torsion
[ 10718 10713 10712 10709 ] final   80.12 input   66.30 | X-H torsion
[ 10763 10752 10751 10750 ] final   -6.28 input  -60.55 | X-H torsion
[ 11005 11000 10999 10996 ] final -112.07 input  -57.11 | X-H torsion

> <Gold.Protein.ActiveResidues>
 VAL166  LYS551  ARG553  GLY616  TRP617  ASP618  TYR619  PRO620  LYS621  CYS622 
 ASP623  PHE694  ASN695  SER759  ASP760  ASP761  ALA762  ILE779  LEU786  VAL792 
 PHE793  MET794  SER795  GLU796  ALA797  LYS798  CYS799  TRP800  GLU811  SER814 

> <Gold.Protein.RotatedAtoms>
  150.8456  133.7866  159.3044 H   0  0  0  0  0  0  0  0  0  0  0  0  # atno 6907 bound_to 6896
  151.5554  135.1065  159.9969 H   0  0  0  0  0  0  0  0  0  0  0  0  # atno 6908 bound_to 6896
  152.4511  133.7588  159.6791 H   0  0  0  0  0  0  0  0  0  0  0  0  # atno 6909 bound_to 6896
  145.0139  140.7930  143.4421 H   0  0  0  0  0  0  0  0  0  0  0  0  # atno 7974 bound_to 7965
  156.2907  140.2652  156.2384 H   0  0  0  0  0  0  0  0  0  0  0  0  # atno 8008 bound_to 7997
  155.0002  140.0388  157.2375 H   0  0  0  0  0  0  0  0  0  0  0  0  # atno 8009 bound_to 7997
  154.7608  140.2760  155.6220 H   0  0  0  0  0  0  0  0  0  0  0  0  # atno 8010 bound_to 7997
  139.4826  144.4834  151.8411 H   0  0  0  0  0  0  0  0  0  0  0  0  # atno 10167 bound_to 10162
  157.6797  130.9945  150.2033 H   0  0  0  0  0  0  0  0  0  0  0  0  # atno 10718 bound_to 10713
  153.4101  135.7007  153.6365 H   0  0  0  0  0  0  0  0  0  0  0  0  # atno 10763 bound_to 10752
  153.4863  135.3682  155.2468 H   0  0  0  0  0  0  0  0  0  0  0  0  # atno 10764 bound_to 10752
  154.8716  135.4078  154.3452 H   0  0  0  0  0  0  0  0  0  0  0  0  # atno 10765 bound_to 10752
  141.0697  133.9400  157.2509 H   0  0  0  0  0  0  0  0  0  0  0  0  # atno 11005 bound_to 11000
  145.1985  139.2264  143.5205 LP  0  0  0  0  0  0  0  0  0  0  0  0  # atno 17320 bound_to 7965
  146.3474  140.1798  142.8589 LP  0  0  0  0  0  0  0  0  0  0  0  0  # atno 17321 bound_to 7965
  140.4312  144.2113  150.5888 LP  0  0  0  0  0  0  0  0  0  0  0  0  # atno 17342 bound_to 10162
  140.4777  143.2390  151.8999 LP  0  0  0  0  0  0  0  0  0  0  0  0  # atno 17343 bound_to 10162
  156.2719  130.3723  149.8022 LP  0  0  0  0  0  0  0  0  0  0  0  0  # atno 17370 bound_to 10713
  156.5737  130.8436  151.3363 LP  0  0  0  0  0  0  0  0  0  0  0  0  # atno 17371 bound_to 10713
  139.9511  135.0175  156.8997 LP  0  0  0  0  0  0  0  0  0  0  0  0  # atno 17394 bound_to 11000
  140.5699  134.0453  155.7427 LP  0  0  0  0  0  0  0  0  0  0  0  0  # atno 17395 bound_to 11000

$$$$
