#       Name:                AV-unprocessed.smi:72
#       Creating user name   scv26
#       Creation time:       Thu Mar 26 17:00:23 2020


#       File generated by GOLD software.
#

@<TRIPOS>MOLECULE
AV-unprocessed.smi:72
    41    42     1
SMALL
NO_CHARGES


@<TRIPOS>ATOM
      1 ****        -4.0207   2.8027   1.8967 N.2            1 S1                 0.0000
      2 ****        -3.0329   2.1740   1.3680 C.2            1 S1                 0.0000
      3 ****        -2.1838   1.2827   2.0401 N.2            1 S1                 0.0000
      4 ****        -1.2203   0.7228   1.3759 C.2            1 S1                 0.0000
      5 ****        -0.9900   0.9882  -0.0365 N.am           1 S1                 0.0000
      6 ****         0.1533   0.3336  -0.7884 C.3            1 S1                 0.0000
      7 ****         1.3224   0.4461  -0.0317 O.3            1 S1                 0.0000
      8 ****         1.7526  -0.8385   0.4003 C.3            1 S1                 0.0000
      9 ****         3.2810  -0.8653   0.5826 C.3            1 S1                 0.0000
     10 ****         3.9648  -0.8433  -0.6534 O.3            1 S1                 0.0000
     11 ****         1.1552  -1.8406  -0.5944 C.3            1 S1                 0.0000
     12 ****         0.8582  -3.0600   0.0563 O.3            1 S1                 0.0000
     13 ****        -0.1281  -1.1565  -1.0591 C.3            1 S1                 0.0000
     14 ****        -0.3263  -1.4059  -2.4359 O.3            1 S1                 0.0000
     15 ****        -1.8505   1.8753  -0.7320 C.2            1 S1                 0.0000
     16 ****        -1.7286   2.1202  -1.9318 O.2            1 S1                 0.0000
     17 ****        -2.8335   2.4338   0.0067 N.am           1 S1                 0.0000
     18 ****         0.3215   0.9097  -1.6988 H              1 S1                 0.0000
     19 ****         1.3038  -1.0024   1.3798 H              1 S1                 0.0000
     20 ****         1.8279  -2.0133  -1.4355 H              1 S1                 0.0000
     21 ****        -0.9940  -1.4846  -0.4816 H              1 S1                 0.0000
     22 ****        -4.4753   3.3806   1.2040 H              1 S1                 0.0000
     23 ****        -0.5305   0.0178   1.8351 H              1 S1                 0.0000
     24 ****         3.6080  -0.0251   1.1955 H              1 S1                 0.0000
     25 ****         3.5711  -1.7752   1.1086 H              1 S1                 0.0000
     26 ****         4.8940  -0.8747  -0.4836 H              1 S1                 0.0000
     27 ****         0.4680  -3.6453  -0.5750 H              1 S1                 0.0000
     28 ****        -1.0791  -0.9126  -2.7250 H              1 S1                 0.0000
     29 ****        -3.4632   3.0717  -0.4577 H              1 S1                 0.0000
     30 ****        -4.2990   2.7306   2.8545 LP             1 S1                 0.0000
     31 ****        -2.3182   1.0831   3.0107 LP             1 S1                 0.0000
     32 ****         1.1450   1.0211   0.7670 LP             1 S1                 0.0000
     33 ****         2.0388   0.8639  -0.5905 LP             1 S1                 0.0000
     34 ****         3.7407  -0.0034  -1.1478 LP             1 S1                 0.0000
     35 ****         3.6954  -1.6349  -1.2018 LP             1 S1                 0.0000
     36 ****         0.2177  -2.8958   0.8065 LP             1 S1                 0.0000
     37 ****         1.6985  -3.4639   0.4179 LP             1 S1                 0.0000
     38 ****        -0.4863  -2.3821  -2.5822 LP             1 S1                 0.0000
     39 ****         0.4822  -1.1199  -2.9503 LP             1 S1                 0.0000
     40 ****        -0.9981   1.6862  -2.4590 LP             1 S1                 0.0000
     41 ****        -2.3600   2.7533  -2.3796 LP             1 S1                 0.0000
@<TRIPOS>BOND
    1    1    2 2     
    2    1   22 1     
    3    2   17 1     
    4    2    3 1     
    5    3    4 2     
    6    4    5 1     
    7    4   23 1     
    8    5    6 1     
    9    5   15 am    
   10    6   18 1     
   11    6   13 1     
   12    6    7 1     
   13    7    8 1     
   14    8   19 1     
   15    8    9 1     
   16    8   11 1     
   17    9   10 1     
   18    9   24 1     
   19    9   25 1     
   20   10   26 1     
   21   11   20 1     
   22   11   12 1     
   23   11   13 1     
   24   12   27 1     
   25   13   21 1     
   26   13   14 1     
   27   14   28 1     
   28   15   16 2     
   29   15   17 am    
   30   17   29 1     
   31    1   30 1     
   32    3   31 1     
   33    7   32 1     
   34    7   33 1     
   35   10   34 1     
   36   10   35 1     
   37   12   36 1     
   38   12   37 1     
   39   14   38 1     
   40   14   39 1     
   41   16   40 1     
   42   16   41 1     
@<TRIPOS>SUBSTRUCTURE
      1 S1             1
@<TRIPOS>SET
LONE_PAIRS      STATIC     ATOMS    <user>   **** ""
12 30 31 32 33 34 35 36 37 38 39 40 41
DONOR_HYDROGENS      STATIC     ATOMS    <user>   **** ""
5 22 26 27 28 29
ATOM$BLUE        STATIC     ATOMS    COLORGROUP SYSTEM
12 30 31 32 33 34 35 36 37 38 39 40 41
ATOM$RED        STATIC     ATOMS    COLORGROUP SYSTEM
5 22 26 27 28 29
