#       Name:                AV-unprocessed.smi:697
#       Creating user name   scv26
#       Creation time:       Fri Mar 27 00:37:09 2020


#       File generated by GOLD software.
#

@<TRIPOS>MOLECULE
AV-unprocessed.smi:697
    50    51     1
SMALL
NO_CHARGES


@<TRIPOS>ATOM
      1 ****        -5.0423  -0.8936   1.9862 C.3            1 S1                 0.0000
      2 ****        -4.0997  -0.7774   0.9273 O.3            1 S1                 0.0000
      3 ****        -2.9987  -1.6968   0.9197 C.3            1 S1                 0.0000
      4 ****        -3.5075  -3.1436   0.9076 C.3            1 S1                 0.0000
      5 ****        -1.9425  -1.2767   1.9603 C.3            1 S1                 0.0000
      6 ****        -1.4039  -0.3056   0.9114 C.3            1 S1                 0.0000
      7 ****         0.0521  -0.2069   0.9228 N.am           1 S1                 0.0000
      8 ****         0.7561   0.6497   0.1707 C.2            1 S1                 0.0000
      9 ****         0.2352   1.4625  -0.5930 O.2            1 S1                 0.0000
     10 ****         2.0782   0.4715   0.3465 N.am           1 S1                 0.0000
     11 ****         3.1484   1.1595  -0.2488 C.2            1 S1                 0.0000
     12 ****         3.0581   2.3936  -0.8101 C.2            1 S1                 0.0000
     13 ****         4.2063   3.0551  -1.4075 C.2            1 S1                 0.0000
     14 ****         4.1052   4.4582  -1.9860 C.3            1 S1                 0.0000
     15 ****         5.2712   5.1009  -1.9066 F              1 S1                 0.0000
     16 ****         3.7532   4.3942  -3.2694 F              1 S1                 0.0000
     17 ****         3.1871   5.1767  -1.3394 F              1 S1                 0.0000
     18 ****         5.3769   2.3935  -1.3496 C.2            1 S1                 0.0000
     19 ****         5.4784   1.1258  -0.7724 N.am           1 S1                 0.0000
     20 ****         4.4437   0.4609  -0.2113 C.2            1 S1                 0.0000
     21 ****         4.6163  -0.6518   0.2853 O.2            1 S1                 0.0000
     22 ****        -1.9838  -1.2419  -0.1799 C.3            1 S1                 0.0000
     23 ****        -1.0450  -2.3356  -0.7242 C.3            1 S1                 0.0000
     24 ****        -2.5705  -0.5476  -1.4141 C.3            1 S1                 0.0000
     25 ****         6.3902   0.6915  -0.7765 H              1 S1                 0.0000
     26 ****        -5.7279  -0.0474   1.9447 H              1 S1                 0.0000
     27 ****        -4.5686  -0.8865   2.9672 H              1 S1                 0.0000
     28 ****        -5.6439  -1.7976   1.8930 H              1 S1                 0.0000
     29 ****        -2.6934  -3.8590   0.7974 H              1 S1                 0.0000
     30 ****        -4.2039  -3.3109   0.0858 H              1 S1                 0.0000
     31 ****        -4.0143  -3.4051   1.8361 H              1 S1                 0.0000
     32 ****        -2.3208  -0.7968   2.8622 H              1 S1                 0.0000
     33 ****        -1.2491  -2.0822   2.2083 H              1 S1                 0.0000
     34 ****        -1.9140   0.6594   0.9590 H              1 S1                 0.0000
     35 ****         0.5526  -0.8462   1.5226 H              1 S1                 0.0000
     36 ****         2.3523  -0.2926   0.9469 H              1 S1                 0.0000
     37 ****         2.1232   2.9305  -0.8170 H              1 S1                 0.0000
     38 ****         6.3125   2.7772  -1.7293 H              1 S1                 0.0000
     39 ****        -0.2533  -1.9147  -1.3451 H              1 S1                 0.0000
     40 ****        -1.5861  -3.0558  -1.3388 H              1 S1                 0.0000
     41 ****        -0.5582  -2.8966   0.0738 H              1 S1                 0.0000
     42 ****        -1.7869  -0.1936  -2.0848 H              1 S1                 0.0000
     43 ****        -3.1683   0.3241  -1.1478 H              1 S1                 0.0000
     44 ****        -3.2129  -1.2207  -1.9822 H              1 S1                 0.0000
     45 ****        -3.7188   0.1464   0.9648 LP             1 S1                 0.0000
     46 ****        -4.5972  -0.8981   0.0683 LP             1 S1                 0.0000
     47 ****        -0.7606   1.5053  -0.6741 LP             1 S1                 0.0000
     48 ****         0.8078   2.0799  -1.1324 LP             1 S1                 0.0000
     49 ****         3.8473  -1.1398   0.6983 LP             1 S1                 0.0000
     50 ****         5.5255  -1.0680   0.2758 LP             1 S1                 0.0000
@<TRIPOS>BOND
    1    1    2 1     
    2    1   26 1     
    3    1   27 1     
    4    1   28 1     
    5    2    3 1     
    6    3   22 1     
    7    3    4 1     
    8    3    5 1     
    9    4   29 1     
   10    4   30 1     
   11    4   31 1     
   12    5    6 1     
   13    5   32 1     
   14    5   33 1     
   15    6    7 1     
   16    6   22 1     
   17    6   34 1     
   18    7    8 am    
   19    7   35 1     
   20    8    9 2     
   21    8   10 am    
   22   10   11 1     
   23   10   36 1     
   24   11   20 1     
   25   11   12 2     
   26   12   13 1     
   27   12   37 1     
   28   13   14 1     
   29   13   18 2     
   30   14   15 1     
   31   14   16 1     
   32   14   17 1     
   33   18   19 1     
   34   18   38 1     
   35   19   25 1     
   36   19   20 am    
   37   20   21 2     
   38   22   23 1     
   39   22   24 1     
   40   23   39 1     
   41   23   40 1     
   42   23   41 1     
   43   24   42 1     
   44   24   43 1     
   45   24   44 1     
   46    2   45 1     
   47    2   46 1     
   48    9   47 1     
   49    9   48 1     
   50   21   49 1     
   51   21   50 1     
@<TRIPOS>SUBSTRUCTURE
      1 S1             1
@<TRIPOS>SET
LONE_PAIRS      STATIC     ATOMS    <user>   **** ""
6 45 46 47 48 49 50
DONOR_HYDROGENS      STATIC     ATOMS    <user>   **** ""
3 35 36 25
ATOM$BLUE        STATIC     ATOMS    COLORGROUP SYSTEM
6 45 46 47 48 49 50
ATOM$RED        STATIC     ATOMS    COLORGROUP SYSTEM
3 35 36 25
