AV-unprocessed.smi:1266|AV-procd|sdf|5321|dock6
  -GOLD-   22720 4443D 1   1.00000     0.00000
 Structure written by MMmdl.
 40 41  0  0  0  0  0  0  0  0  3 V2000
  149.7902  142.3111  158.5033 O   0  0  0  0  0  0  0  0  0  0  0  0
  150.5440  142.4756  157.5430 C   0  0  0  0  0  0  0  0  0  0  0  0
  150.0637  142.2149  156.1081 C   0  0  0  0  0  0  0  0  0  0  0  0
  150.3038  140.8362  155.6490 N   0  0  0  0  0  0  0  0  0  0  0  0
  151.1785  140.0476  156.4223 C   0  0  0  0  0  0  0  0  0  0  0  0
  151.4702  138.7728  156.0974 C   0  0  0  0  0  0  0  0  0  0  0  0
  152.3746  137.9793  156.9005 N   0  3  0  0  0  0  0  0  0  0  0  0
  153.1059  138.5517  157.7022 O   0  0  0  0  0  0  0  0  0  0  0  0
  152.3854  136.7603  156.7571 O   0  5  0  0  0  0  0  0  0  0  0  0
  150.8479  138.2208  154.9096 C   0  0  0  0  0  0  0  0  0  0  0  0
  150.0151  138.9718  154.1623 C   0  0  0  0  0  0  0  0  0  0  0  0
  149.7042  140.3611  154.5145 C   0  0  0  0  0  0  0  0  0  0  0  0
  148.9501  141.0546  153.8319 O   0  0  0  0  0  0  0  0  0  0  0  0
  151.8123  142.8970  157.6659 N   0  0  0  0  0  0  0  0  0  0  0  0
  152.4883  143.2090  158.9231 C   0  0  0  0  0  0  0  0  0  0  0  0
  152.5748  141.9226  159.7716 C   0  0  0  0  0  0  0  0  0  0  0  0
  153.5547  142.0376  160.9518 C   0  0  0  0  0  0  0  0  0  0  0  0
  152.9675  142.6170  162.2509 C   0  0  0  0  0  0  0  0  0  0  0  0
  151.9847  143.7908  162.0976 C   0  0  0  0  0  0  0  0  0  0  0  0
  152.3243  144.7917  160.9817 C   0  0  0  0  0  0  0  0  0  0  0  0
  151.7538  144.3758  159.6151 C   0  0  0  0  0  0  0  0  0  0  0  0
  149.0006  142.4539  156.0568 H   0  0  0  0  0  0  0  0  0  0  0  0
  150.5471  142.9250  155.4344 H   0  0  0  0  0  0  0  0  0  0  0  0
  151.5944  140.5523  157.2825 H   0  0  0  0  0  0  0  0  0  0  0  0
  151.0449  137.2019  154.6105 H   0  0  0  0  0  0  0  0  0  0  0  0
  149.5631  138.5410  153.2811 H   0  0  0  0  0  0  0  0  0  0  0  0
  152.3560  143.0061  156.8221 H   0  0  0  0  0  0  0  0  0  0  0  0
  153.5073  143.5272  158.6950 H   0  0  0  0  0  0  0  0  0  0  0  0
  151.5884  141.6085  160.1152 H   0  0  0  0  0  0  0  0  0  0  0  0
  152.9348  141.1177  159.1290 H   0  0  0  0  0  0  0  0  0  0  0  0
  153.9494  141.0466  161.1794 H   0  0  0  0  0  0  0  0  0  0  0  0
  154.4219  142.6249  160.6476 H   0  0  0  0  0  0  0  0  0  0  0  0
  152.4633  141.8221  162.8014 H   0  0  0  0  0  0  0  0  0  0  0  0
  153.7977  142.9287  162.8860 H   0  0  0  0  0  0  0  0  0  0  0  0
  150.9765  143.4048  161.9427 H   0  0  0  0  0  0  0  0  0  0  0  0
  151.9440  144.3206  163.0498 H   0  0  0  0  0  0  0  0  0  0  0  0
  151.8774  145.7509  161.2452 H   0  0  0  0  0  0  0  0  0  0  0  0
  153.3986  144.9704  160.9244 H   0  0  0  0  0  0  0  0  0  0  0  0
  151.7918  145.2453  158.9576 H   0  0  0  0  0  0  0  0  0  0  0  0
  150.6943  144.1379  159.7211 H   0  0  0  0  0  0  0  0  0  0  0  0
  1  2  2  0  0  0  0
  2  3  1  0  0  0  0
  2 14  1  0  0  0  0
  3  4  1  0  0  0  0
  3 22  1  0  0  0  0
  3 23  1  0  0  0  0
  4 12  1  0  0  0  0
  4  5  1  0  0  0  0
  5  6  2  0  0  0  0
  5 24  1  0  0  0  0
  6  7  1  0  0  0  0
  6 10  1  0  0  0  0
  7  8  2  0  0  0  0
  7  9  1  0  0  0  0
 10 11  2  0  0  0  0
 10 25  1  0  0  0  0
 11 12  1  0  0  0  0
 11 26  1  0  0  0  0
 12 13  2  0  0  0  0
 14 15  1  0  0  0  0
 14 27  1  0  0  0  0
 15 21  1  0  0  0  0
 15 16  1  0  0  0  0
 15 28  1  0  0  0  0
 16 17  1  0  0  0  0
 16 29  1  0  0  0  0
 16 30  1  0  0  0  0
 17 18  1  0  0  0  0
 17 31  1  0  0  0  0
 17 32  1  0  0  0  0
 18 19  1  0  0  0  0
 18 33  1  0  0  0  0
 18 34  1  0  0  0  0
 19 20  1  0  0  0  0
 19 35  1  0  0  0  0
 19 36  1  0  0  0  0
 20 21  1  0  0  0  0
 20 37  1  0  0  0  0
 20 38  1  0  0  0  0
 21 39  1  0  0  0  0
 21 40  1  0  0  0  0
M  CHG  1   7   1
M  CHG  1   9  -1
M  END
> <s_m_source_file>
AV-unprocessed.smi

> <i_m_source_file_index>
1266

> <i_lp_mmshare_version>
43012

> <i_f3d_flags>
0

> <s_epik_input>
W0NIMl0xW0NIMl1bQ0gyXVtDSDJdW0NIMl1bQ0gyXVtDSF0xW05IXUMoPU8pW0NIMl1uMltjSF1jKFtOK10oPU8pW08tXSlbY0hdW2NIXWMyPU8=

> <s_epik_cmdline>
J2VwaWtfcHl0aG9uJywgJy1waCcsICc3LjAnLCAnLXRuJywgJzgnLCAnLW1hJywgJzIwMCcsICctbWV0YWxfYmluZGluZycsICctaW1hZScsICc8aW5maWxlLm1hZT4nLCAnLW9tYWUnLCAnPG91dGZpbGUubWFlPic=

> <r_lp_tautomer_probability>
1

> <r_epik_Ionization_Penalty>
2.02954e-08

> <r_epik_Ionization_Penalty_Charging>
8.05481e-11

> <r_epik_Ionization_Penalty_Neutral>
2.02148e-08

> <r_epik_State_Penalty>
-0

> <r_epik_Charging_Adjusted_Penalty>
8.05481e-11

> <i_epik_Tot_Q>
0

> <i_epik_Tot_abs_Q>
2

> <r_epik_Metal_State_Penalty>
-0

> <b_epik_Metal_Only>
0

> <s_lp_Force_Field>
OPLS_2005

> <r_lp_Energy>
25.8216

> <b_lp_Chiralities_Consistent>
1

> <s_lp_Variant>
AV-unprocessed.smi:1266-1

> <Gold.Version>
5.8.1

> <Gold.Id.Protein>
6NUR|6NUR_protein|mol2

> <Gold.PLP.Fitness>
49.7570

> <Gold.PLP.PLP>
-43.6869

> <Gold.PLP.part.hbond>
-3.2699

> <Gold.PLP.part.metal>
0.0000

> <Gold.PLP.part.buried>
3.4024

> <Gold.PLP.part.nonpolar>
-45.0311

> <Gold.PLP.part.repulsive>
1.8905

> <Gold.PLP.ligand.clash>
0.0574

> <Gold.PLP.ligand.torsion>
0.6591

> <Gold.PLP.Chemscore.Hbond>
2.4732

> <Gold.PLP.Chemscore.CHOScore>
0.0000

> <Gold.PLP.Chemscore.Metal>
0.0000

> <Gold.Chemscore.Hbonds>
donor molecule, donor type, donor heavy atom, donor atom, acceptor molecule, acceptor atom, score
      P1  H  7997  8008       L1     8  0.54
      P1  H  8011  8017       L1    13  0.56
      P1  H 10752 10765       L1     9  0.47

> <Gold.PLP.Chemscore.Internal.Correction>
0.0262

> <Gold.Rescore>
     Score         DG    S(hbond)    S(metal)    S(lipo)     H(rot)  DE(clash)    DE(int)     intcor
     17.67     -23.98       2.55        0.00     119.12       1.55       4.76       1.56       ----

> <Gold.Chemscore.Fitness>
17.6650

> <Gold.Chemscore.DG>
-23.9790

> <Gold.Chemscore.ZeroCoef>
-5.4800

> <Gold.Chemscore.Hbond>
2.5543

> <Gold.Chemscore.Metal>
0.0000

> <Gold.Chemscore.Lipo>
119.1185

> <Gold.Chemscore.Internal_Hbond>
0.0000

> <Gold.Chemscore.DEClash>
4.7553

> <Gold.Chemscore.DEInternal>
1.5587

> <Gold.Chemscore.Rot>
1.5505

> <Gold.Chemscore.Internal.Correction>
   9.000000E+99

> <Gold.Chemscore.Hbonds>
donor molecule, donor type, donor heavy atom, donor atom, acceptor molecule, acceptor atom, score
      P1  H  7997  8008       L1     8  0.53
      P1  H  8011  8017       L1    13  0.51
      P1  H 10752 10765       L1     9  0.47

> <Gold.Chemscore.Hbond.Weighted>
-8.5313

> <Gold.Chemscore.Metal.Weighted>
-0.0000

> <Gold.Chemscore.Lipo.Weighted>
-13.9369

> <Gold.Chemscore.Internal_Hbond.Weighted>
0.0000

> <Gold.Chemscore.DEClash.Weighted>
4.7553

> <Gold.Chemscore.DEInternal.Weighted>
1.5587

> <Gold.Chemscore.Rot.Weighted>
3.9692

> <Gold.Chemscore.Internal.Correction.Weighted>
   9.000000E+99

> <Gold.Protein.RotatedTorsions>
[ 6907 6896 6895 6894 ] final   16.69 input  -60.11 | X-H torsion
[ 7974 7965 7964 7962 ] final   -5.68 input  175.53 | X-H torsion
[ 8008 7997 7996 7995 ] final  -90.74 input   59.86 | X-H torsion
[ 10167 10162 10161 10158 ] final  -29.64 input  -65.29 | X-H torsion
[ 10718 10713 10712 10709 ] final  -27.17 input   66.30 | X-H torsion
[ 10763 10752 10751 10750 ] final -132.76 input  -60.55 | X-H torsion
[ 11005 11000 10999 10996 ] final  -76.28 input  -57.11 | X-H torsion

> <Gold.Protein.ActiveResidues>
 VAL166  LYS551  ARG553  GLY616  TRP617  ASP618  TYR619  PRO620  LYS621  CYS622 
 ASP623  PHE694  ASN695  SER759  ASP760  ASP761  ALA762  ILE779  LEU786  VAL792 
 PHE793  MET794  SER795  GLU796  ALA797  LYS798  CYS799  TRP800  GLU811  SER814 

> <Gold.Protein.RotatedAtoms>
  151.8378  135.0600  160.0444 H   0  0  0  0  0  0  0  0  0  0  0  0  # atno 6907 bound_to 6896
  152.2831  133.5485  159.5519 H   0  0  0  0  0  0  0  0  0  0  0  0  # atno 6908 bound_to 6896
  150.7198  134.0451  159.3821 H   0  0  0  0  0  0  0  0  0  0  0  0  # atno 6909 bound_to 6896
  146.2347  140.2058  142.8334 H   0  0  0  0  0  0  0  0  0  0  0  0  # atno 7974 bound_to 7965
  154.7022  140.0527  157.0469 H   0  0  0  0  0  0  0  0  0  0  0  0  # atno 8008 bound_to 7997
  155.0669  140.3195  155.4624 H   0  0  0  0  0  0  0  0  0  0  0  0  # atno 8009 bound_to 7997
  156.2763  140.2089  156.5796 H   0  0  0  0  0  0  0  0  0  0  0  0  # atno 8010 bound_to 7997
  140.7258  143.3912  151.1426 H   0  0  0  0  0  0  0  0  0  0  0  0  # atno 10167 bound_to 10162
  156.4417  130.4465  149.7048 H   0  0  0  0  0  0  0  0  0  0  0  0  # atno 10718 bound_to 10713
  154.8740  135.3787  154.4463 H   0  0  0  0  0  0  0  0  0  0  0  0  # atno 10763 bound_to 10752
  153.5143  135.7029  153.5769 H   0  0  0  0  0  0  0  0  0  0  0  0  # atno 10764 bound_to 10752
  153.4045  135.3940  155.1975 H   0  0  0  0  0  0  0  0  0  0  0  0  # atno 10765 bound_to 10752
  141.1652  133.6978  156.7645 H   0  0  0  0  0  0  0  0  0  0  0  0  # atno 11005 bound_to 11000
  144.9746  140.8401  143.5434 LP  0  0  0  0  0  0  0  0  0  0  0  0  # atno 17320 bound_to 7965
  145.2044  139.2236  143.5176 LP  0  0  0  0  0  0  0  0  0  0  0  0  # atno 17321 bound_to 7965
  139.7517  143.8768  152.3078 LP  0  0  0  0  0  0  0  0  0  0  0  0  # atno 17342 bound_to 10162
  139.8624  144.7110  150.9084 LP  0  0  0  0  0  0  0  0  0  0  0  0  # atno 17343 bound_to 10162
  156.3911  130.7627  151.2628 LP  0  0  0  0  0  0  0  0  0  0  0  0  # atno 17370 bound_to 10713
  157.7506  131.0268  150.3976 LP  0  0  0  0  0  0  0  0  0  0  0  0  # atno 17371 bound_to 10713
  140.2509  134.8541  157.3666 LP  0  0  0  0  0  0  0  0  0  0  0  0  # atno 17394 bound_to 11000
  140.1703  134.4616  155.7836 LP  0  0  0  0  0  0  0  0  0  0  0  0  # atno 17395 bound_to 11000

$$$$
