#       Name:                AV-unprocessed.smi:307
#       Creating user name   scv26
#       Creation time:       Thu Mar 26 22:18:27 2020


#       File generated by GOLD software.
#

@<TRIPOS>MOLECULE
AV-unprocessed.smi:307
    45    46     1
SMALL
NO_CHARGES


@<TRIPOS>ATOM
      1 ****        -1.1570  -2.7275  -1.1221 O.2            1 S1                 0.0000
      2 ****        -1.4215  -1.6004  -0.7101 C.2            1 S1                 0.0000
      3 ****        -0.5056  -0.6705  -0.3742 N.am           1 S1                 0.0000
      4 ****         0.9118  -0.7739  -0.3672 C.ar           1 S1                 0.0000
      5 ****         1.6261  -1.9956  -0.3412 C.ar           1 S1                 0.0000
      6 ****         3.0337  -1.9605  -0.3218 C.ar           1 S1                 0.0000
      7 ****         3.6851  -0.7114  -0.3203 C.ar           1 S1                 0.0000
      8 ****         5.0642  -0.6864  -0.3052 O.3            1 S1                 0.0000
      9 ****         5.7216   0.5782  -0.3121 C.3            1 S1                 0.0000
     10 ****         7.2387   0.3579  -0.3094 C.3            1 S1                 0.0000
     11 ****         7.8555   1.5391  -0.3168 F              1 S1                 0.0000
     12 ****         7.6055  -0.3093   0.7844 F              1 S1                 0.0000
     13 ****         7.6074  -0.3235  -1.3940 F              1 S1                 0.0000
     14 ****         3.0075   0.4629  -0.3299 N.ar           1 S1                 0.0000
     15 ****         1.6585   0.4222  -0.3489 C.ar           1 S1                 0.0000
     16 ****        -2.6968  -1.1908  -0.5804 N.am           1 S1                 0.0000
     17 ****        -3.9260  -1.9384  -0.8558 C.3            1 S1                 0.0000
     18 ****        -4.2396  -1.9535  -2.3629 C.3            1 S1                 0.0000
     19 ****        -5.6124  -2.5931  -2.6264 C.3            1 S1                 0.0000
     20 ****        -6.6207  -1.9036  -1.8956 O.3            1 S1                 0.0000
     21 ****        -6.4286  -1.9725  -0.4868 C.3            1 S1                 0.0000
     22 ****        -5.1017  -1.2966  -0.1032 C.3            1 S1                 0.0000
     23 ****        -0.8723   0.2381  -0.1312 H              1 S1                 0.0000
     24 ****         1.1304  -2.9532  -0.3226 H              1 S1                 0.0000
     25 ****         3.6039  -2.8776  -0.3053 H              1 S1                 0.0000
     26 ****         5.4366   1.1484  -1.1980 H              1 S1                 0.0000
     27 ****         5.4332   1.1586   0.5661 H              1 S1                 0.0000
     28 ****         1.1591   1.3801  -0.3538 H              1 S1                 0.0000
     29 ****        -2.8281  -0.2416  -0.2615 H              1 S1                 0.0000
     30 ****        -3.8223  -2.9645  -0.4985 H              1 S1                 0.0000
     31 ****        -4.2394  -0.9338  -2.7510 H              1 S1                 0.0000
     32 ****        -3.4687  -2.4952  -2.9115 H              1 S1                 0.0000
     33 ****        -5.8506  -2.5425  -3.6890 H              1 S1                 0.0000
     34 ****        -5.6076  -3.6491  -2.3519 H              1 S1                 0.0000
     35 ****        -7.2609  -1.4705   0.0068 H              1 S1                 0.0000
     36 ****        -6.4447  -3.0126  -0.1578 H              1 S1                 0.0000
     37 ****        -4.9458  -1.3660   0.9739 H              1 S1                 0.0000
     38 ****        -5.1607  -0.2338  -0.3425 H              1 S1                 0.0000
     39 ****        -0.2036  -3.0100  -1.2285 LP             1 S1                 0.0000
     40 ****        -1.8951  -3.3622  -1.3509 LP             1 S1                 0.0000
     41 ****         5.3774  -1.1863  -1.1126 LP             1 S1                 0.0000
     42 ****         5.3592  -1.1679   0.5201 LP             1 S1                 0.0000
     43 ****         3.4945   1.3363  -0.3230 LP             1 S1                 0.0000
     44 ****        -7.5081  -2.3081  -2.1168 LP             1 S1                 0.0000
     45 ****        -6.6143  -0.9426  -2.1719 LP             1 S1                 0.0000
@<TRIPOS>BOND
    1    1    2 2     
    2    2    3 am    
    3    2   16 am    
    4    3    4 1     
    5    3   23 1     
    6    4   15 ar    
    7    4    5 ar    
    8    5    6 ar    
    9    5   24 1     
   10    6    7 ar    
   11    6   25 1     
   12    7    8 1     
   13    7   14 ar    
   14    8    9 1     
   15    9   10 1     
   16    9   26 1     
   17    9   27 1     
   18   10   11 1     
   19   10   12 1     
   20   10   13 1     
   21   14   15 ar    
   22   15   28 1     
   23   16   17 1     
   24   16   29 1     
   25   17   22 1     
   26   17   18 1     
   27   17   30 1     
   28   18   19 1     
   29   18   31 1     
   30   18   32 1     
   31   19   20 1     
   32   19   33 1     
   33   19   34 1     
   34   20   21 1     
   35   21   22 1     
   36   21   35 1     
   37   21   36 1     
   38   22   37 1     
   39   22   38 1     
   40    1   39 1     
   41    1   40 1     
   42    8   41 1     
   43    8   42 1     
   44   14   43 1     
   45   20   44 1     
   46   20   45 1     
@<TRIPOS>SUBSTRUCTURE
      1 S1             1
@<TRIPOS>SET
LONE_PAIRS      STATIC     ATOMS    <user>   **** ""
7 39 40 41 42 43 44 45
DONOR_HYDROGENS      STATIC     ATOMS    <user>   **** ""
2 23 29
ATOM$BLUE        STATIC     ATOMS    COLORGROUP SYSTEM
7 39 40 41 42 43 44 45
ATOM$RED        STATIC     ATOMS    COLORGROUP SYSTEM
2 23 29
