#       Name:                AV-unprocessed.smi:1381
#       Creating user name   scv26
#       Creation time:       Fri Mar 27 05:22:17 2020


#       File generated by GOLD software.
#

@<TRIPOS>MOLECULE
AV-unprocessed.smi:1381
    50    51     1
SMALL
NO_CHARGES


@<TRIPOS>ATOM
      1 ****        -6.4515   5.3473   0.1863 C.3            1 S1                 0.0000
      2 ****        -5.2751   4.6935  -0.4545 C.2            1 S1                 0.0000
      3 ****        -4.0949   4.2179   0.0421 C.2            1 S1                 0.0000
      4 ****        -3.4326   3.7208  -1.1133 C.2            1 S1                 0.0000
      5 ****        -2.2140   3.1591  -1.1412 N.pl3          1 S1                -1.0000
      6 ****        -2.0680   1.8372  -0.8949 C.2            1 S1                 0.0000
      7 ****        -2.9702   1.0314  -0.6552 O.2            1 S1                 0.0000
      8 ****        -0.7945   1.4230  -0.9230 N.am           1 S1                 0.0000
      9 ****        -0.3478   0.0592  -0.6739 C.3            1 S1                 0.0000
     10 ****         1.1761   0.0278  -0.4777 C.3            1 S1                 0.0000
     11 ****         1.6976  -1.3459  -0.2675 N.4            1 S1                 1.0000
     12 ****         3.1553  -1.4353  -0.5208 C.3            1 S1                 0.0000
     13 ****         3.6511  -2.8832  -0.3462 C.3            1 S1                 0.0000
     14 ****         5.1700  -2.9980  -0.5176 C.3            1 S1                 0.0000
     15 ****         3.3192  -3.3338   0.9623 O.3            1 S1                 0.0000
     16 ****         1.9154  -3.3443   1.1965 C.3            1 S1                 0.0000
     17 ****         1.6675  -3.9322   2.5901 C.3            1 S1                 0.0000
     18 ****         1.3720  -1.9089   1.0666 C.3            1 S1                 0.0000
     19 ****        -4.1418   3.8933  -2.2163 N.2            1 S1                 0.0000
     20 ****        -5.3280   4.5108  -1.8016 O.3            1 S1                 0.0000
     21 ****        -6.1683   6.3047   0.6235 H              1 S1                 0.0000
     22 ****        -6.8556   4.7196   0.9803 H              1 S1                 0.0000
     23 ****        -7.2455   5.5284  -0.5384 H              1 S1                 0.0000
     24 ****        -3.7592   4.2222   1.0682 H              1 S1                 0.0000
     25 ****        -0.0860   2.1128  -1.1270 H              1 S1                 0.0000
     26 ****        -0.8590  -0.3244   0.2092 H              1 S1                 0.0000
     27 ****        -0.6367  -0.5701  -1.5169 H              1 S1                 0.0000
     28 ****         1.6418   0.4510  -1.3693 H              1 S1                 0.0000
     29 ****         1.4704   0.6658   0.3573 H              1 S1                 0.0000
     30 ****         3.3744  -1.0925  -1.5331 H              1 S1                 0.0000
     31 ****         3.6836  -0.7701   0.1646 H              1 S1                 0.0000
     32 ****         3.1687  -3.5292  -1.0821 H              1 S1                 0.0000
     33 ****         5.4789  -2.6784  -1.5131 H              1 S1                 0.0000
     34 ****         5.5009  -4.0282  -0.3823 H              1 S1                 0.0000
     35 ****         5.6975  -2.3815   0.2111 H              1 S1                 0.0000
     36 ****         1.4330  -3.9884   0.4592 H              1 S1                 0.0000
     37 ****         0.6015  -3.9704   2.8160 H              1 S1                 0.0000
     38 ****         2.1524  -3.3355   3.3632 H              1 S1                 0.0000
     39 ****         2.0579  -4.9479   2.6595 H              1 S1                 0.0000
     40 ****         1.7985  -1.2725   1.8439 H              1 S1                 0.0000
     41 ****         0.2939  -1.9222   1.2214 H              1 S1                 0.0000
     42 ****         1.2512  -1.9340  -0.9569 H              1 S1                 0.0000
     43 ****        -1.4114   3.7198  -1.3447 LP             1 S1                 0.0000
     44 ****        -3.9214   1.3389  -0.6296 LP             1 S1                 0.0000
     45 ****        -2.7506   0.0706  -0.4864 LP             1 S1                 0.0000
     46 ****         3.7509  -2.7267   1.6295 LP             1 S1                 0.0000
     47 ****         3.6708  -4.2625   1.0803 LP             1 S1                 0.0000
     48 ****        -3.8853   3.6372  -3.1483 LP             1 S1                 0.0000
     49 ****        -5.4245   5.3954  -2.2578 LP             1 S1                 0.0000
     50 ****        -6.1086   3.9299  -2.0322 LP             1 S1                 0.0000
@<TRIPOS>BOND
    1    1    2 1     
    2    1   21 1     
    3    1   22 1     
    4    1   23 1     
    5    2   20 1     
    6    2    3 2     
    7    3    4 1     
    8    3   24 1     
    9    4    5 1     
   10    4   19 2     
   11    5    6 1     
   12    6    7 2     
   13    6    8 am    
   14    8    9 1     
   15    8   25 1     
   16    9   10 1     
   17    9   26 1     
   18    9   27 1     
   19   10   11 1     
   20   10   28 1     
   21   10   29 1     
   22   11   18 1     
   23   11   12 1     
   24   11   42 1     
   25   12   13 1     
   26   12   30 1     
   27   12   31 1     
   28   13   14 1     
   29   13   15 1     
   30   13   32 1     
   31   14   33 1     
   32   14   34 1     
   33   14   35 1     
   34   15   16 1     
   35   16   17 1     
   36   16   18 1     
   37   16   36 1     
   38   17   37 1     
   39   17   38 1     
   40   17   39 1     
   41   18   40 1     
   42   18   41 1     
   43   19   20 1     
   44    5   43 1     
   45    7   44 1     
   46    7   45 1     
   47   15   46 1     
   48   15   47 1     
   49   19   48 1     
   50   20   49 1     
   51   20   50 1     
@<TRIPOS>SUBSTRUCTURE
      1 S1             1
@<TRIPOS>SET
LONE_PAIRS      STATIC     ATOMS    <user>   **** ""
8 43 44 45 46 47 48 49 50
DONOR_HYDROGENS      STATIC     ATOMS    <user>   **** ""
2 25 42
ATOM$BLUE        STATIC     ATOMS    COLORGROUP SYSTEM
8 43 44 45 46 47 48 49 50
ATOM$RED        STATIC     ATOMS    COLORGROUP SYSTEM
2 25 42
