AV-unprocessed.smi:3274|AV-procd|sdf|12523|dock10
  -GOLD-   2272018433D 1   1.00000     0.00000
 Structure written by MMmdl.
 43 44  0  0  0  0  0  0  0  0  2 V2000
  152.8178  144.3868  157.1149 C   0  0  0  0  0  0  0  0  0  0  0  0
  152.2814  144.3076  158.5349 C   0  0  0  0  0  0  0  0  0  0  0  0
  151.3453  145.1853  158.9442 C   0  0  0  0  0  0  0  0  0  0  0  0
  150.7972  145.2521  160.3505 C   0  0  0  0  0  0  0  0  0  0  0  0
  151.7575  144.5948  161.3441 C   0  0  0  0  0  0  0  0  0  0  0  0
  152.1835  143.1958  160.8700 C   0  0  2  0  0  0  0  0  0  0  0  0
  153.0732  142.5405  161.9444 C   0  0  0  0  0  0  0  0  0  0  0  0
  152.8647  143.2242  159.4663 C   0  0  1  0  0  0  0  0  0  0  0  0
  152.8341  141.8070  158.8342 C   0  0  0  0  0  0  0  0  0  0  0  0
  151.4666  141.2504  158.7384 N   0  3  0  0  0  0  0  0  0  0  0  0
  151.3116  140.0869  157.8372 C   0  0  2  0  0  0  0  0  0  0  0  0
  152.0140  138.8415  158.4133 C   0  0  0  0  0  0  0  0  0  0  0  0
  151.8283  140.4653  156.4342 C   0  0  0  0  0  0  0  0  0  0  0  0
  151.5511  139.4499  155.4344 N   0  0  0  0  0  0  0  0  0  0  0  0
  152.0428  138.2181  155.2883 C   0  0  0  0  0  0  0  0  0  0  0  0
  151.5495  137.5654  154.2456 N   0  0  0  0  0  0  0  0  0  0  0  0
  150.6951  138.5166  153.7633 C   0  0  0  0  0  0  0  0  0  0  0  0
  150.6580  139.6648  154.4401 N   0  0  0  0  0  0  0  0  0  0  0  0
  153.9078  144.4048  157.1183 H   0  0  0  0  0  0  0  0  0  0  0  0
  152.4764  145.2929  156.6132 H   0  0  0  0  0  0  0  0  0  0  0  0
  152.4763  143.5399  156.5203 H   0  0  0  0  0  0  0  0  0  0  0  0
  150.9494  145.9144  158.2520 H   0  0  0  0  0  0  0  0  0  0  0  0
  150.6413  146.2959  160.6242 H   0  0  0  0  0  0  0  0  0  0  0  0
  149.8216  144.7654  160.3704 H   0  0  0  0  0  0  0  0  0  0  0  0
  152.6409  145.2235  161.4670 H   0  0  0  0  0  0  0  0  0  0  0  0
  151.2809  144.5384  162.3234 H   0  0  0  0  0  0  0  0  0  0  0  0
  151.2716  142.6015  160.7900 H   0  0  0  0  0  0  0  0  0  0  0  0
  154.0113  143.0833  162.0650 H   0  0  0  0  0  0  0  0  0  0  0  0
  153.3179  141.5059  161.7100 H   0  0  0  0  0  0  0  0  0  0  0  0
  152.5727  142.5339  162.9132 H   0  0  0  0  0  0  0  0  0  0  0  0
  153.9071  143.5075  159.6212 H   0  0  0  0  0  0  0  0  0  0  0  0
  153.2517  141.8242  157.8300 H   0  0  0  0  0  0  0  0  0  0  0  0
  153.4663  141.1356  159.4169 H   0  0  0  0  0  0  0  0  0  0  0  0
  151.2084  140.9493  159.6672 H   0  0  0  0  0  0  0  0  0  0  0  0
  150.2458  139.8714  157.7463 H   0  0  0  0  0  0  0  0  0  0  0  0
  151.8767  137.9718  157.7707 H   0  0  0  0  0  0  0  0  0  0  0  0
  151.6195  138.5696  159.3920 H   0  0  0  0  0  0  0  0  0  0  0  0
  153.0865  139.0069  158.5204 H   0  0  0  0  0  0  0  0  0  0  0  0
  151.3666  141.3964  156.1024 H   0  0  0  0  0  0  0  0  0  0  0  0
  152.9045  140.6460  156.4636 H   0  0  0  0  0  0  0  0  0  0  0  0
  152.7783  137.7917  155.9547 H   0  0  0  0  0  0  0  0  0  0  0  0
  150.0826  138.3582  152.8877 H   0  0  0  0  0  0  0  0  0  0  0  0
  150.8275  141.9780  158.4512 H   0  0  0  0  0  0  0  0  0  0  0  0
  1  2  1  0  0  0  0
  1 19  1  0  0  0  0
  1 20  1  0  0  0  0
  1 21  1  0  0  0  0
  2  8  1  0  0  0  0
  2  3  2  0  0  0  0
  3  4  1  0  0  0  0
  3 22  1  0  0  0  0
  4  5  1  0  0  0  0
  4 23  1  0  0  0  0
  4 24  1  0  0  0  0
  5  6  1  0  0  0  0
  5 25  1  0  0  0  0
  5 26  1  0  0  0  0
  6  7  1  0  0  0  0
  6  8  1  0  0  0  0
  6 27  1  0  0  0  0
  7 28  1  0  0  0  0
  7 29  1  0  0  0  0
  7 30  1  0  0  0  0
  8  9  1  0  0  0  0
  8 31  1  0  0  0  0
  9 10  1  0  0  0  0
  9 32  1  0  0  0  0
  9 33  1  0  0  0  0
 10 11  1  0  0  0  0
 10 34  1  0  0  0  0
 10 43  1  0  0  0  0
 11 12  1  0  0  0  0
 11 13  1  0  0  0  0
 11 35  1  0  0  0  0
 12 36  1  0  0  0  0
 12 37  1  0  0  0  0
 12 38  1  0  0  0  0
 13 14  1  0  0  0  0
 13 39  1  0  0  0  0
 13 40  1  0  0  0  0
 14 18  1  0  0  0  0
 14 15  1  0  0  0  0
 15 16  2  0  0  0  0
 15 41  1  0  0  0  0
 16 17  1  0  0  0  0
 17 18  2  0  0  0  0
 17 42  1  0  0  0  0
M  CHG  1  10   1
M  END
> <s_m_source_file>
AV-unprocessed.smi

> <i_m_source_file_index>
3274

> <i_lp_mmshare_version>
43012

> <i_f3d_flags>
0

> <s_epik_input>
W0NIM11DMT1bQ0hdW0NIMl1bQ0gyXVtDQEBIXShbQ0gzXSlbQ0BIXTFbQ0gyXVtOSF1bQ0BIXShbQ0gzXSlbQ0gyXW4yW2NIXW5bY0hdbjI=

> <s_epik_cmdline>
J2VwaWtfcHl0aG9uJywgJy1waCcsICc3LjAnLCAnLXRuJywgJzgnLCAnLW1hJywgJzIwMCcsICctbWV0YWxfYmluZGluZycsICctaW1hZScsICc8aW5maWxlLm1hZT4nLCAnLW9tYWUnLCAnPG91dGZpbGUubWFlPic=

> <r_lp_tautomer_probability>
1

> <r_epik_Ionization_Penalty>
0.0017527

> <r_epik_Ionization_Penalty_Charging>
0.00175191

> <r_epik_Ionization_Penalty_Neutral>
7.94565e-07

> <r_epik_State_Penalty>
0.00118605

> <r_epik_Charging_Adjusted_Penalty>
0.00293796

> <i_epik_Tot_Q>
1

> <i_epik_Tot_abs_Q>
1

> <r_epik_Metal_State_Penalty>
-0

> <b_epik_Metal_Only>
0

> <s_lp_Force_Field>
OPLS_2005

> <r_lp_Energy>
18.9317

> <b_lp_Chiralities_Consistent>
1

> <s_lp_Variant>
AV-unprocessed.smi:3274-2

> <Gold.Version>
5.8.1

> <Gold.Id.Protein>
6NUR|6NUR_protein|mol2

> <Gold.PLP.Fitness>
52.0426

> <Gold.PLP.PLP>
-42.5207

> <Gold.PLP.part.hbond>
-1.6895

> <Gold.PLP.part.metal>
0.0000

> <Gold.PLP.part.buried>
-5.1015

> <Gold.PLP.part.nonpolar>
-36.2007

> <Gold.PLP.part.repulsive>
0.4344

> <Gold.PLP.ligand.clash>
0.0000

> <Gold.PLP.ligand.torsion>
0.2136

> <Gold.PLP.Chemscore.Hbond>
1.5850

> <Gold.PLP.Chemscore.CHOScore>
1.7125

> <Gold.PLP.Chemscore.Metal>
0.0000

> <Gold.Chemscore.Hbonds>
donor molecule, donor type, donor heavy atom, donor atom, acceptor molecule, acceptor atom, score
      P1  H  7989  7998       L1    18  0.90
      P1  H 10752 10765       L1    16  0.19
      L1  C    17    42       P1  7948  0.92
      L1  C    17    42       P1  7957  0.92

> <Gold.PLP.Chemscore.Internal.Correction>
0.0565

> <Gold.Rescore>
     Score         DG    S(hbond)    S(metal)    S(lipo)     H(rot)  DE(clash)    DE(int)     intcor
     18.11     -20.66       1.86        0.00     128.23       2.36       2.33       0.22       ----

> <Gold.Chemscore.Fitness>
18.1140

> <Gold.Chemscore.DG>
-20.6636

> <Gold.Chemscore.ZeroCoef>
-5.4800

> <Gold.Chemscore.Hbond>
1.8640

> <Gold.Chemscore.Metal>
0.0000

> <Gold.Chemscore.Lipo>
128.2319

> <Gold.Chemscore.Internal_Hbond>
0.0000

> <Gold.Chemscore.DEClash>
2.3260

> <Gold.Chemscore.DEInternal>
0.2236

> <Gold.Chemscore.Rot>
2.3615

> <Gold.Chemscore.Internal.Correction>
   9.000000E+99

> <Gold.Chemscore.Hbonds>
donor molecule, donor type, donor heavy atom, donor atom, acceptor molecule, acceptor atom, score
      P1  H  7989  7998       L1    18  0.11
      P1  H 10752 10765       L1    16  0.04

> <Gold.Chemscore.Hbond.Weighted>
-6.2259

> <Gold.Chemscore.Metal.Weighted>
-0.0000

> <Gold.Chemscore.Lipo.Weighted>
-15.0031

> <Gold.Chemscore.Internal_Hbond.Weighted>
0.0000

> <Gold.Chemscore.DEClash.Weighted>
2.3260

> <Gold.Chemscore.DEInternal.Weighted>
0.2236

> <Gold.Chemscore.Rot.Weighted>
6.0454

> <Gold.Chemscore.Internal.Correction.Weighted>
   9.000000E+99

> <Gold.Protein.RotatedTorsions>
[ 6907 6896 6895 6894 ] final  124.56 input  -60.11 | X-H torsion
[ 7974 7965 7964 7962 ] final  -15.92 input  175.53 | X-H torsion
[ 8008 7997 7996 7995 ] final  -41.48 input   59.86 | X-H torsion
[ 10167 10162 10161 10158 ] final  160.35 input  -65.29 | X-H torsion
[ 10718 10713 10712 10709 ] final -128.79 input   66.30 | X-H torsion
[ 10763 10752 10751 10750 ] final  163.71 input  -60.55 | X-H torsion
[ 11005 11000 10999 10996 ] final  165.23 input  -57.11 | X-H torsion

> <Gold.Protein.ActiveResidues>
 VAL166  LYS551  ARG553  GLY616  TRP617  ASP618  TYR619  PRO620  LYS621  CYS622 
 ASP623  PHE694  ASN695  SER759  ASP760  ASP761  ALA762  ILE779  LEU786  VAL792 
 PHE793  MET794  SER795  GLU796  ALA797  LYS798  CYS799  TRP800  GLU811  SER814 

> <Gold.Protein.RotatedAtoms>
  152.4067  133.6900  159.6362 H   0  0  0  0  0  0  0  0  0  0  0  0  # atno 6907 bound_to 6896
  150.7951  133.8696  159.3263 H   0  0  0  0  0  0  0  0  0  0  0  0  # atno 6908 bound_to 6896
  151.6448  135.1010  160.0200 H   0  0  0  0  0  0  0  0  0  0  0  0  # atno 6909 bound_to 6896
  146.2011  140.3562  142.8423 H   0  0  0  0  0  0  0  0  0  0  0  0  # atno 7974 bound_to 7965
  154.4004  140.1498  156.3198 H   0  0  0  0  0  0  0  0  0  0  0  0  # atno 8008 bound_to 7997
  155.8540  140.3456  155.5691 H   0  0  0  0  0  0  0  0  0  0  0  0  # atno 8009 bound_to 7997
  155.7953  140.0862  157.1977 H   0  0  0  0  0  0  0  0  0  0  0  0  # atno 8010 bound_to 7997
  139.4839  144.4642  151.8664 H   0  0  0  0  0  0  0  0  0  0  0  0  # atno 10167 bound_to 10162
  156.1985  130.6841  151.0510 H   0  0  0  0  0  0  0  0  0  0  0  0  # atno 10718 bound_to 10713
  154.2979  135.2759  155.2625 H   0  0  0  0  0  0  0  0  0  0  0  0  # atno 10763 bound_to 10752
  154.5075  135.5791  153.6582 H   0  0  0  0  0  0  0  0  0  0  0  0  # atno 10764 bound_to 10752
  152.9905  135.6173  154.3147 H   0  0  0  0  0  0  0  0  0  0  0  0  # atno 10765 bound_to 10752
  140.2540  134.7954  157.3528 H   0  0  0  0  0  0  0  0  0  0  0  0  # atno 11005 bound_to 11000
  144.8685  140.7240  143.6062 LP  0  0  0  0  0  0  0  0  0  0  0  0  # atno 17320 bound_to 7965
  145.3481  139.1713  143.4449 LP  0  0  0  0  0  0  0  0  0  0  0  0  # atno 17321 bound_to 7965
  140.4107  144.2373  150.5889 LP  0  0  0  0  0  0  0  0  0  0  0  0  # atno 17342 bound_to 10162
  140.4969  143.2330  151.8736 LP  0  0  0  0  0  0  0  0  0  0  0  0  # atno 17343 bound_to 10162
  157.6971  131.0790  150.6934 LP  0  0  0  0  0  0  0  0  0  0  0  0  # atno 17370 bound_to 10713
  156.6991  130.4618  149.5578 LP  0  0  0  0  0  0  0  0  0  0  0  0  # atno 17371 bound_to 10713
  140.1530  134.4826  155.7948 LP  0  0  0  0  0  0  0  0  0  0  0  0  # atno 17394 bound_to 11000
  141.2198  133.6870  156.7411 LP  0  0  0  0  0  0  0  0  0  0  0  0  # atno 17395 bound_to 11000

$$$$
