AV-unprocessed.smi:176|AV-procd|sdf|1435|dock2
  -GOLD-   2262019213D 1   1.00000     0.00000
 Structure written by MMmdl.
 57 61  0  0  0  0  0  0  0  0  1 V2000
  146.7825  131.8490  150.4724 O   0  0  0  0  0  0  0  0  0  0  0  0
  145.8045  131.9971  149.4621 C   0  0  0  0  0  0  0  0  0  0  0  0
  144.6282  132.8926  149.8947 C   0  0  0  0  0  0  0  0  0  0  0  0
  143.6462  132.8658  148.7045 C   0  0  0  0  0  0  0  0  0  0  0  0
  143.5084  134.1152  148.0589 O   0  0  0  0  0  0  0  0  0  0  0  0
  144.0241  132.6096  151.2899 C   0  0  0  0  0  0  0  0  0  0  0  0
  143.9973  134.1132  151.5916 C   0  0  0  0  0  0  0  0  0  0  0  0
  144.2892  134.6173  152.9022 N   0  0  0  0  0  0  0  0  0  0  0  0
  143.4983  135.4457  153.6663 C   0  0  0  0  0  0  0  0  0  0  0  0
  144.0094  135.8016  154.8133 N   0  0  0  0  0  0  0  0  0  0  0  0
  145.2616  135.1979  154.8301 C   0  0  0  0  0  0  0  0  0  0  0  0
  146.3403  135.1760  155.7601 C   0  0  0  0  0  0  0  0  0  0  0  0
  146.2885  135.8052  156.9628 N   0  0  0  0  0  0  0  0  0  0  0  0
  147.2354  136.8949  157.1994 C   0  0  0  0  0  0  0  0  0  0  0  0
  146.8146  137.7291  158.4199 C   0  0  0  0  0  0  0  0  0  0  0  0
  146.5932  136.8647  159.6811 C   0  0  2  0  0  0  0  0  0  0  0  0
  145.9800  137.7150  160.6342 O   0  0  0  0  0  0  0  0  0  0  0  0
  147.9222  136.3582  160.2941 C   0  0  0  0  0  0  0  0  0  0  0  0
  147.6982  135.4300  161.5015 C   0  0  0  0  0  0  0  0  0  0  0  0
  146.7722  134.2574  161.1468 C   0  0  0  0  0  0  0  0  0  0  0  0
  145.4363  134.7540  160.5681 C   0  0  0  0  0  0  0  0  0  0  0  0
  145.6269  135.6925  159.3562 C   0  0  2  0  0  0  0  0  0  0  0  0
  146.0850  134.9136  158.1032 C   0  0  0  0  0  0  0  0  0  0  0  0
  147.4569  134.4857  155.4027 N   0  0  0  0  0  0  0  0  0  0  0  0
  147.5142  133.8529  154.2273 C   0  0  0  0  0  0  0  0  0  0  0  0
  146.5840  133.7777  153.2743 N   0  0  0  0  0  0  0  0  0  0  0  0
  145.4620  134.4703  153.6226 C   0  0  0  0  0  0  0  0  0  0  0  0
  144.9977  134.2894  150.4434 C   0  0  0  0  0  0  0  0  0  0  0  0
  147.5216  131.3844  150.1103 H   0  0  0  0  0  0  0  0  0  0  0  0
  146.2984  132.4068  148.5803 H   0  0  0  0  0  0  0  0  0  0  0  0
  145.4545  131.0005  149.1912 H   0  0  0  0  0  0  0  0  0  0  0  0
  143.9695  132.1422  147.9553 H   0  0  0  0  0  0  0  0  0  0  0  0
  142.6533  132.5537  149.0302 H   0  0  0  0  0  0  0  0  0  0  0  0
  144.3663  134.4994  147.9602 H   0  0  0  0  0  0  0  0  0  0  0  0
  143.0395  132.1414  151.2749 H   0  0  0  0  0  0  0  0  0  0  0  0
  144.6975  132.0651  151.9529 H   0  0  0  0  0  0  0  0  0  0  0  0
  143.0301  134.5392  151.3229 H   0  0  0  0  0  0  0  0  0  0  0  0
  142.5204  135.7774  153.3491 H   0  0  0  0  0  0  0  0  0  0  0  0
  148.2346  136.4837  157.3466 H   0  0  0  0  0  0  0  0  0  0  0  0
  147.2833  137.5437  156.3238 H   0  0  0  0  0  0  0  0  0  0  0  0
  147.5565  138.5048  158.6132 H   0  0  0  0  0  0  0  0  0  0  0  0
  145.8894  138.2510  158.1695 H   0  0  0  0  0  0  0  0  0  0  0  0
  145.7574  137.2015  161.3955 H   0  0  0  0  0  0  0  0  0  0  0  0
  148.4957  135.8138  159.5437 H   0  0  0  0  0  0  0  0  0  0  0  0
  148.5464  137.2020  160.5915 H   0  0  0  0  0  0  0  0  0  0  0  0
  148.6561  135.0500  161.8576 H   0  0  0  0  0  0  0  0  0  0  0  0
  147.2692  135.9963  162.3291 H   0  0  0  0  0  0  0  0  0  0  0  0
  147.2686  133.6007  160.4321 H   0  0  0  0  0  0  0  0  0  0  0  0
  146.5861  133.6529  162.0347 H   0  0  0  0  0  0  0  0  0  0  0  0
  144.8133  133.9034  160.2889 H   0  0  0  0  0  0  0  0  0  0  0  0
  144.8875  135.2813  161.3494 H   0  0  0  0  0  0  0  0  0  0  0  0
  144.6499  136.1153  159.1149 H   0  0  0  0  0  0  0  0  0  0  0  0
  145.3499  134.1427  157.8756 H   0  0  0  0  0  0  0  0  0  0  0  0
  147.0231  134.3924  158.2952 H   0  0  0  0  0  0  0  0  0  0  0  0
  148.4363  133.3293  154.0228 H   0  0  0  0  0  0  0  0  0  0  0  0
  146.0253  134.3608  150.8023 H   0  0  0  0  0  0  0  0  0  0  0  0
  144.7669  135.1193  149.7748 H   0  0  0  0  0  0  0  0  0  0  0  0
  1  2  1  0  0  0  0
  1 29  1  0  0  0  0
  2  3  1  0  0  0  0
  2 30  1  0  0  0  0
  2 31  1  0  0  0  0
  3 28  1  0  0  0  0
  3  4  1  0  0  0  0
  3  6  1  0  0  0  0
  4  5  1  0  0  0  0
  4 32  1  0  0  0  0
  4 33  1  0  0  0  0
  5 34  1  0  0  0  0
  6  7  1  0  0  0  0
  6 35  1  0  0  0  0
  6 36  1  0  0  0  0
  7  8  1  0  0  0  0
  7 28  1  0  0  0  0
  7 37  1  0  0  0  0
  8 27  1  0  0  0  0
  8  9  1  0  0  0  0
  9 10  2  0  0  0  0
  9 38  1  0  0  0  0
 10 11  1  0  0  0  0
 11 27  2  0  0  0  0
 11 12  1  0  0  0  0
 12 13  1  0  0  0  0
 12 24  2  0  0  0  0
 13 23  1  0  0  0  0
 13 14  1  0  0  0  0
 14 15  1  0  0  0  0
 14 39  1  0  0  0  0
 14 40  1  0  0  0  0
 15 16  1  0  0  0  0
 15 41  1  0  0  0  0
 15 42  1  0  0  0  0
 16 22  1  0  0  0  0
 16 17  1  0  0  0  0
 16 18  1  0  0  0  0
 17 43  1  0  0  0  0
 18 19  1  0  0  0  0
 18 44  1  0  0  0  0
 18 45  1  0  0  0  0
 19 20  1  0  0  0  0
 19 46  1  0  0  0  0
 19 47  1  0  0  0  0
 20 21  1  0  0  0  0
 20 48  1  0  0  0  0
 20 49  1  0  0  0  0
 21 22  1  0  0  0  0
 21 50  1  0  0  0  0
 21 51  1  0  0  0  0
 22 23  1  0  0  0  0
 22 52  1  0  0  0  0
 23 53  1  0  0  0  0
 23 54  1  0  0  0  0
 24 25  1  0  0  0  0
 25 26  2  0  0  0  0
 25 55  1  0  0  0  0
 26 27  1  0  0  0  0
 28 56  1  0  0  0  0
 28 57  1  0  0  0  0
M  END
> <s_m_source_file>
AV-unprocessed.smi

> <i_m_source_file_index>
176

> <i_lp_mmshare_version>
43012

> <i_f3d_flags>
0

> <s_epik_input>
W09IXVtDSDJdQzEoW0NIMl1bT0hdKVtDSDJdW0NIXShbQ0gyXTEpbihbY0hdbjIpYyhjMjMpbltjSF1uYzNOKFtDSDJdW0NIMl00KVtDSDJdW0NAQEhdKFtDQF00NVtPSF0pW0NIMl1bQ0gyXVtDSDJdW0NIMl01

> <s_epik_cmdline>
J2VwaWtfcHl0aG9uJywgJy1waCcsICc3LjAnLCAnLXRuJywgJzgnLCAnLW1hJywgJzIwMCcsICctbWV0YWxfYmluZGluZycsICctaW1hZScsICc8aW5maWxlLm1hZT4nLCAnLW9tYWUnLCAnPG91dGZpbGUubWFlPic=

> <r_lp_tautomer_probability>
1

> <r_epik_Ionization_Penalty>
0.00642876

> <r_epik_Ionization_Penalty_Charging>
0

> <r_epik_Ionization_Penalty_Neutral>
0.00642876

> <r_epik_State_Penalty>
0.00467813

> <r_epik_Charging_Adjusted_Penalty>
0.00467813

> <i_epik_Tot_Q>
0

> <i_epik_Tot_abs_Q>
0

> <r_epik_Metal_State_Penalty>
-0

> <b_epik_Metal_Only>
0

> <s_lp_Force_Field>
OPLS_2005

> <r_lp_Energy>
56.0126

> <b_lp_Chiralities_Consistent>
1

> <s_lp_Variant>
AV-unprocessed.smi:176-3

> <Gold.Version>
5.8.1

> <Gold.Id.Protein>
6NUR|6NUR_protein|mol2

> <Gold.PLP.Fitness>
46.2747

> <Gold.PLP.PLP>
-36.3651

> <Gold.PLP.part.hbond>
-5.0865

> <Gold.PLP.part.metal>
0.0000

> <Gold.PLP.part.buried>
-5.3261

> <Gold.PLP.part.nonpolar>
-25.2356

> <Gold.PLP.part.repulsive>
0.1730

> <Gold.PLP.ligand.clash>
0.0000

> <Gold.PLP.ligand.torsion>
1.4316

> <Gold.PLP.Chemscore.Hbond>
4.0000

> <Gold.PLP.Chemscore.CHOScore>
0.0000

> <Gold.PLP.Chemscore.Metal>
0.0000

> <Gold.Chemscore.Hbonds>
donor molecule, donor type, donor heavy atom, donor atom, acceptor molecule, acceptor atom, score
      L1  H     1    29       P1 10747  1.00
      L1  H     5    34       P1  7921  1.00
      P1  H  6934  6947       L1    17  1.00
      P1  H 10192 10197       L1     5  0.99

> <Gold.PLP.Chemscore.Internal.Correction>
0.7729

> <Gold.Rescore>
     Score         DG    S(hbond)    S(metal)    S(lipo)     H(rot)  DE(clash)    DE(int)     intcor
     16.29     -18.42       3.78        0.00      83.89       3.71       0.75       1.38       ----

> <Gold.Chemscore.Fitness>
16.2913

> <Gold.Chemscore.DG>
-18.4248

> <Gold.Chemscore.ZeroCoef>
-5.4800

> <Gold.Chemscore.Hbond>
3.7812

> <Gold.Chemscore.Metal>
0.0000

> <Gold.Chemscore.Lipo>
83.8942

> <Gold.Chemscore.Internal_Hbond>
0.0000

> <Gold.Chemscore.DEClash>
0.7521

> <Gold.Chemscore.DEInternal>
1.3815

> <Gold.Chemscore.Rot>
3.7109

> <Gold.Chemscore.Internal.Correction>
   9.000000E+99

> <Gold.Chemscore.Hbonds>
donor molecule, donor type, donor heavy atom, donor atom, acceptor molecule, acceptor atom, score
      L1  H     1    29       P1 10747  0.89
      L1  H     5    34       P1  7921  1.00
      P1  H  6934  6947       L1    17  0.50
      P1  H 10192 10197       L1     5  0.81

> <Gold.Chemscore.Hbond.Weighted>
-12.6292

> <Gold.Chemscore.Metal.Weighted>
-0.0000

> <Gold.Chemscore.Lipo.Weighted>
-9.8156

> <Gold.Chemscore.Internal_Hbond.Weighted>
0.0000

> <Gold.Chemscore.DEClash.Weighted>
0.7521

> <Gold.Chemscore.DEInternal.Weighted>
1.3815

> <Gold.Chemscore.Rot.Weighted>
9.5000

> <Gold.Chemscore.Internal.Correction.Weighted>
   9.000000E+99

> <Gold.Protein.RotatedTorsions>
[ 6907 6896 6895 6894 ] final  -82.30 input  -60.11 | X-H torsion
[ 7974 7965 7964 7962 ] final  139.39 input  175.53 | X-H torsion
[ 8008 7997 7996 7995 ] final -129.76 input   59.86 | X-H torsion
[ 10167 10162 10161 10158 ] final  109.31 input  -65.29 | X-H torsion
[ 10718 10713 10712 10709 ] final  -90.65 input   66.30 | X-H torsion
[ 10763 10752 10751 10750 ] final -126.74 input  -60.55 | X-H torsion
[ 11005 11000 10999 10996 ] final  145.05 input  -57.11 | X-H torsion

> <Gold.Protein.ActiveResidues>
 VAL166  LYS551  ARG553  GLY616  TRP617  ASP618  TYR619  PRO620  LYS621  CYS622 
 ASP623  PHE694  ASN695  SER759  ASP760  ASP761  ALA762  ILE779  LEU786  VAL792 
 PHE793  MET794  SER795  GLU796  ALA797  LYS798  CYS799  TRP800  GLU811  SER814 

> <Gold.Protein.RotatedAtoms>
  150.6899  134.3686  159.4981 H   0  0  0  0  0  0  0  0  0  0  0  0  # atno 6907 bound_to 6896
  152.1505  134.8989  160.0557 H   0  0  0  0  0  0  0  0  0  0  0  0  # atno 6908 bound_to 6896
  152.0088  133.3819  159.4248 H   0  0  0  0  0  0  0  0  0  0  0  0  # atno 6909 bound_to 6896
  144.9283  139.5079  143.5630 H   0  0  0  0  0  0  0  0  0  0  0  0  # atno 7974 bound_to 7965
  155.2845  140.0445  157.3018 H   0  0  0  0  0  0  0  0  0  0  0  0  # atno 8008 bound_to 7997
  154.5577  140.2336  155.8352 H   0  0  0  0  0  0  0  0  0  0  0  0  # atno 8009 bound_to 7997
  156.2021  140.3022  155.9556 H   0  0  0  0  0  0  0  0  0  0  0  0  # atno 8010 bound_to 7997
  139.6777  144.7121  151.1573 H   0  0  0  0  0  0  0  0  0  0  0  0  # atno 10167 bound_to 10162
  155.9989  130.4918  150.5355 H   0  0  0  0  0  0  0  0  0  0  0  0  # atno 10718 bound_to 10713
  154.8748  135.3985  154.3480 H   0  0  0  0  0  0  0  0  0  0  0  0  # atno 10763 bound_to 10752
  153.4270  135.7024  153.6261 H   0  0  0  0  0  0  0  0  0  0  0  0  # atno 10764 bound_to 10752
  153.4899  135.3750  155.2456 H   0  0  0  0  0  0  0  0  0  0  0  0  # atno 10765 bound_to 10752
  140.0681  134.9167  157.1298 H   0  0  0  0  0  0  0  0  0  0  0  0  # atno 11005 bound_to 11000
  146.3236  139.8214  142.8926 LP  0  0  0  0  0  0  0  0  0  0  0  0  # atno 17320 bound_to 7965
  145.3183  141.0237  143.3515 LP  0  0  0  0  0  0  0  0  0  0  0  0  # atno 17321 bound_to 7965
  140.7641  143.5747  150.8958 LP  0  0  0  0  0  0  0  0  0  0  0  0  # atno 17342 bound_to 10162
  139.9417  143.6374  152.3052 LP  0  0  0  0  0  0  0  0  0  0  0  0  # atno 17343 bound_to 10162
  157.3299  131.0697  151.1869 LP  0  0  0  0  0  0  0  0  0  0  0  0  # atno 17370 bound_to 10713
  157.2753  130.6724  149.6039 LP  0  0  0  0  0  0  0  0  0  0  0  0  # atno 17371 bound_to 10713
  140.3669  134.2433  155.7181 LP  0  0  0  0  0  0  0  0  0  0  0  0  # atno 17394 bound_to 11000
  141.2001  133.7996  157.0506 LP  0  0  0  0  0  0  0  0  0  0  0  0  # atno 17395 bound_to 11000

$$$$
