#       Name:                AV-unprocessed.smi:3165
#       Creating user name   scv26
#       Creation time:       Fri Mar 27 17:51:51 2020


#       File generated by GOLD software.
#

@<TRIPOS>MOLECULE
AV-unprocessed.smi:3165
    41    42     1
SMALL
NO_CHARGES


@<TRIPOS>ATOM
      1 ****        -2.7891  -1.8662   1.6701 C.3            1 S1                 0.0000
      2 ****        -2.2314  -1.0041   0.5297 C.3            1 S1                 0.0000
      3 ****        -2.6492  -1.5758  -0.8415 C.3            1 S1                 0.0000
      4 ****        -2.2406  -0.7357  -1.9528 N.pl3          1 S1                 0.0000
      5 ****        -2.8926   0.3548  -2.4888 C.2            1 S1                 0.0000
      6 ****        -2.1202   0.8267  -3.5111 C.2            1 S1                 0.0000
      7 ****        -1.0024  -0.0538  -3.5258 C.2            1 S1                 0.0000
      8 ****        -1.0770  -0.9878  -2.5914 N.2            1 S1                 0.0000
      9 ****        -0.7579  -0.9243   0.6507 N.4            1 S1                 1.0000
     10 ****        -0.1912   0.4320   0.4942 C.3            1 S1                 0.0000
     11 ****         1.3419   0.3954   0.5371 C.3            1 S1                 0.0000
     12 ****         1.9580   1.7678   0.2017 C.3            1 S1                 0.0000
     13 ****         3.4832   1.7252   0.3486 C.3            1 S1                 0.0000
     14 ****         3.8538   1.1925   1.7366 C.3            1 S1                 0.0000
     15 ****         3.1433  -0.1441   2.0019 C.3            1 S1                 0.0000
     16 ****         1.7357   0.0182   1.8551 O.3            1 S1                 0.0000
     17 ****        -3.8778  -1.9141   1.6304 H              1 S1                 0.0000
     18 ****        -2.5154  -1.4563   2.6429 H              1 S1                 0.0000
     19 ****        -2.4095  -2.8876   1.6199 H              1 S1                 0.0000
     20 ****        -2.6563  -0.0050   0.6417 H              1 S1                 0.0000
     21 ****        -2.2379  -2.5769  -0.9829 H              1 S1                 0.0000
     22 ****        -3.7341  -1.6797  -0.8855 H              1 S1                 0.0000
     23 ****        -3.8397   0.7012  -2.1018 H              1 S1                 0.0000
     24 ****        -2.3235   1.6714  -4.1528 H              1 S1                 0.0000
     25 ****        -0.1450  -0.0416  -4.1826 H              1 S1                 0.0000
     26 ****        -0.4975  -1.2561   1.5685 H              1 S1                 0.0000
     27 ****        -0.5184   0.8503  -0.4577 H              1 S1                 0.0000
     28 ****        -0.5784   1.0839   1.2785 H              1 S1                 0.0000
     29 ****         1.7012  -0.3468  -0.1783 H              1 S1                 0.0000
     30 ****         1.6910   2.0658  -0.8127 H              1 S1                 0.0000
     31 ****         1.5495   2.5284   0.8686 H              1 S1                 0.0000
     32 ****         3.9087   1.0782  -0.4195 H              1 S1                 0.0000
     33 ****         3.9091   2.7171   0.1952 H              1 S1                 0.0000
     34 ****         4.9343   1.0704   1.8184 H              1 S1                 0.0000
     35 ****         3.5621   1.9172   2.4978 H              1 S1                 0.0000
     36 ****         3.5034  -0.9188   1.3232 H              1 S1                 0.0000
     37 ****         3.3545  -0.4862   3.0152 H              1 S1                 0.0000
     38 ****        -0.3463  -1.5370  -0.0392 H              1 S1                 0.0000
     39 ****        -0.4195  -1.7167  -2.4007 LP             1 S1                 0.0000
     40 ****         1.2916  -0.8484   2.0825 LP             1 S1                 0.0000
     41 ****         1.4305   0.7264   2.4917 LP             1 S1                 0.0000
@<TRIPOS>BOND
    1    1    2 1     
    2    1   17 1     
    3    1   18 1     
    4    1   19 1     
    5    2    3 1     
    6    2    9 1     
    7    2   20 1     
    8    3    4 1     
    9    3   21 1     
   10    3   22 1     
   11    4    8 1     
   12    4    5 1     
   13    5    6 2     
   14    5   23 1     
   15    6    7 1     
   16    6   24 1     
   17    7    8 2     
   18    7   25 1     
   19    9   10 1     
   20    9   26 1     
   21    9   38 1     
   22   10   11 1     
   23   10   27 1     
   24   10   28 1     
   25   11   16 1     
   26   11   12 1     
   27   11   29 1     
   28   12   13 1     
   29   12   30 1     
   30   12   31 1     
   31   13   14 1     
   32   13   32 1     
   33   13   33 1     
   34   14   15 1     
   35   14   34 1     
   36   14   35 1     
   37   15   16 1     
   38   15   36 1     
   39   15   37 1     
   40    8   39 1     
   41   16   40 1     
   42   16   41 1     
@<TRIPOS>SUBSTRUCTURE
      1 S1             1
@<TRIPOS>SET
LONE_PAIRS      STATIC     ATOMS    <user>   **** ""
3 39 40 41
DONOR_HYDROGENS      STATIC     ATOMS    <user>   **** ""
2 26 38
ATOM$BLUE        STATIC     ATOMS    COLORGROUP SYSTEM
3 39 40 41
ATOM$RED        STATIC     ATOMS    COLORGROUP SYSTEM
2 26 38
