AV-unprocessed.smi:1536|AV-procd|sdf|6188|dock6
  -GOLD-   22720 6353D 1   1.00000     0.00000
 Structure written by MMmdl.
 48 49  0  0  0  0  0  0  0  0  2 V2000
  144.7375  132.4770  151.5319 C   0  0  0  0  0  0  0  0  0  0  0  0
  145.6438  133.6901  151.2579 C   0  0  2  0  0  0  0  0  0  0  0  0
  147.1407  133.3256  151.2572 C   0  0  0  0  0  0  0  0  0  0  0  0
  147.6758  133.0598  152.6753 C   0  0  0  0  0  0  0  0  0  0  0  0
  147.4056  134.2187  153.5669 N   0  3  2  0  0  0  0  0  0  0  0  0
  148.1426  134.2026  154.8707 C   0  0  2  0  0  0  0  0  0  0  0  0
  149.6648  134.5140  154.7442 C   0  0  0  0  0  0  0  0  0  0  0  0
  149.9731  135.8862  154.3510 N   0  0  0  0  0  0  0  0  0  0  0  0
  150.8742  136.6765  154.9540 C   0  0  0  0  0  0  0  0  0  0  0  0
  151.5170  136.3254  155.9442 O   0  0  0  0  0  0  0  0  0  0  0  0
  151.0463  138.0744  154.3481 C   0  0  0  0  0  0  0  0  0  0  0  0
  151.2200  139.1054  155.3562 N   0  0  0  0  0  0  0  0  0  0  0  0
  151.9208  139.1135  156.4920 C   0  0  0  0  0  0  0  0  0  0  0  0
  151.8153  140.2726  157.1233 N   0  0  0  0  0  0  0  0  0  0  0  0
  150.9849  141.0078  156.2939 N   0  0  0  0  0  0  0  0  0  0  0  0
  150.6285  140.3205  155.2435 N   0  0  0  0  0  0  0  0  0  0  0  0
  147.8679  132.8631  155.6151 C   0  0  0  0  0  0  0  0  0  0  0  0
  148.0362  133.0059  157.1413 C   0  0  0  0  0  0  0  0  0  0  0  0
  148.7623  131.7087  155.1236 C   0  0  0  0  0  0  0  0  0  0  0  0
  145.9590  134.5564  153.6410 C   0  0  0  0  0  0  0  0  0  0  0  0
  145.3971  134.8513  152.2395 C   0  0  0  0  0  0  0  0  0  0  0  0
  144.9196  132.0379  152.5126 H   0  0  0  0  0  0  0  0  0  0  0  0
  144.8967  131.6964  150.7876 H   0  0  0  0  0  0  0  0  0  0  0  0
  143.6850  132.7585  151.4877 H   0  0  0  0  0  0  0  0  0  0  0  0
  145.3906  134.0451  150.2581 H   0  0  0  0  0  0  0  0  0  0  0  0
  147.3181  132.4577  150.6211 H   0  0  0  0  0  0  0  0  0  0  0  0
  147.7077  134.1452  150.8134 H   0  0  0  0  0  0  0  0  0  0  0  0
  147.2234  132.1540  153.0738 H   0  0  0  0  0  0  0  0  0  0  0  0
  148.7494  132.8771  152.6182 H   0  0  0  0  0  0  0  0  0  0  0  0
  147.7065  134.9816  155.4977 H   0  0  0  0  0  0  0  0  0  0  0  0
  150.1753  134.3252  155.6887 H   0  0  0  0  0  0  0  0  0  0  0  0
  150.1297  133.8440  154.0207 H   0  0  0  0  0  0  0  0  0  0  0  0
  149.4896  136.2502  153.5424 H   0  0  0  0  0  0  0  0  0  0  0  0
  151.9078  138.0853  153.6784 H   0  0  0  0  0  0  0  0  0  0  0  0
  150.1674  138.3179  153.7499 H   0  0  0  0  0  0  0  0  0  0  0  0
  152.5053  138.2792  156.8510 H   0  0  0  0  0  0  0  0  0  0  0  0
  146.8351  132.5675  155.4287 H   0  0  0  0  0  0  0  0  0  0  0  0
  149.0409  133.3422  157.3996 H   0  0  0  0  0  0  0  0  0  0  0  0
  147.8690  132.0536  157.6455 H   0  0  0  0  0  0  0  0  0  0  0  0
  147.3257  133.7138  157.5681 H   0  0  0  0  0  0  0  0  0  0  0  0
  149.8188  131.9733  155.1781 H   0  0  0  0  0  0  0  0  0  0  0  0
  148.5365  131.4251  154.0962 H   0  0  0  0  0  0  0  0  0  0  0  0
  148.6162  130.8133  155.7287 H   0  0  0  0  0  0  0  0  0  0  0  0
  145.4001  133.7408  154.0992 H   0  0  0  0  0  0  0  0  0  0  0  0
  145.8140  135.4320  154.2737 H   0  0  0  0  0  0  0  0  0  0  0  0
  145.8717  135.7539  151.8515 H   0  0  0  0  0  0  0  0  0  0  0  0
  144.3313  135.0742  152.3020 H   0  0  0  0  0  0  0  0  0  0  0  0
  147.8240  134.9952  153.0746 H   0  0  0  0  0  0  0  0  0  0  0  0
  1  2  1  0  0  0  0
  1 22  1  0  0  0  0
  1 23  1  0  0  0  0
  1 24  1  0  0  0  0
  2 21  1  0  0  0  0
  2  3  1  0  0  0  0
  2 25  1  0  0  0  0
  3  4  1  0  0  0  0
  3 26  1  0  0  0  0
  3 27  1  0  0  0  0
  4  5  1  0  0  0  0
  4 28  1  0  0  0  0
  4 29  1  0  0  0  0
  5  6  1  0  0  0  0
  5 20  1  0  0  0  0
  5 48  1  0  0  0  0
  6  7  1  0  0  0  0
  6 17  1  0  0  0  0
  6 30  1  0  0  0  0
  7  8  1  0  0  0  0
  7 31  1  0  0  0  0
  7 32  1  0  0  0  0
  8  9  1  0  0  0  0
  8 33  1  0  0  0  0
  9 10  2  0  0  0  0
  9 11  1  0  0  0  0
 11 12  1  0  0  0  0
 11 34  1  0  0  0  0
 11 35  1  0  0  0  0
 12 16  1  0  0  0  0
 12 13  1  0  0  0  0
 13 14  2  0  0  0  0
 13 36  1  0  0  0  0
 14 15  1  0  0  0  0
 15 16  2  0  0  0  0
 17 18  1  0  0  0  0
 17 19  1  0  0  0  0
 17 37  1  0  0  0  0
 18 38  1  0  0  0  0
 18 39  1  0  0  0  0
 18 40  1  0  0  0  0
 19 41  1  0  0  0  0
 19 42  1  0  0  0  0
 19 43  1  0  0  0  0
 20 21  1  0  0  0  0
 20 44  1  0  0  0  0
 20 45  1  0  0  0  0
 21 46  1  0  0  0  0
 21 47  1  0  0  0  0
M  CHG  1   5   1
M  END
> <s_m_source_file>
AV-unprocessed.smi

> <i_m_source_file_index>
1536

> <i_lp_mmshare_version>
43012

> <i_f3d_flags>
0

> <s_epik_input>
W0NIM11bQ0hdMVtDSDJdW0NIMl1OKFtDSDJdW0NIMl0xKVtDQEBIXShbQ0hdKFtDSDNdKVtDSDNdKVtDSDJdW05IXUMoPU8pW0NIMl1uMltjSF1ubm4y

> <s_epik_cmdline>
J2VwaWtfcHl0aG9uJywgJy1waCcsICc3LjAnLCAnLXRuJywgJzgnLCAnLW1hJywgJzIwMCcsICctbWV0YWxfYmluZGluZycsICctaW1hZScsICc8aW5maWxlLm1hZT4nLCAnLW9tYWUnLCAnPG91dGZpbGUubWFlPic=

> <r_lp_tautomer_probability>
1

> <r_epik_Ionization_Penalty>
0.00109671

> <r_epik_Ionization_Penalty_Charging>
0.00109273

> <r_epik_Ionization_Penalty_Neutral>
3.97951e-06

> <r_epik_State_Penalty>
0.000716588

> <r_epik_Charging_Adjusted_Penalty>
0.00180932

> <i_epik_Tot_Q>
1

> <i_epik_Tot_abs_Q>
1

> <r_epik_Metal_State_Penalty>
-0

> <b_epik_Metal_Only>
0

> <s_lp_Force_Field>
OPLS_2005

> <r_lp_Energy>
37.5817

> <b_lp_Chiralities_Consistent>
1

> <s_lp_Variant>
AV-unprocessed.smi:1536-3

> <Gold.Version>
5.8.1

> <Gold.Id.Protein>
6NUR|6NUR_protein|mol2

> <Gold.PLP.Fitness>
43.0592

> <Gold.PLP.PLP>
-30.4440

> <Gold.PLP.part.hbond>
-5.6732

> <Gold.PLP.part.metal>
0.0000

> <Gold.PLP.part.buried>
-2.2588

> <Gold.PLP.part.nonpolar>
-22.5735

> <Gold.PLP.part.repulsive>
0.2060

> <Gold.PLP.ligand.clash>
0.0000

> <Gold.PLP.ligand.torsion>
1.3780

> <Gold.PLP.Chemscore.Hbond>
5.0000

> <Gold.PLP.Chemscore.CHOScore>
0.0000

> <Gold.PLP.Chemscore.Metal>
0.0000

> <Gold.Chemscore.Hbonds>
donor molecule, donor type, donor heavy atom, donor atom, acceptor molecule, acceptor atom, score
      L1  H     5    48       P1  7948  1.95
      L1  H     8    33       P1  7948  1.00
      P1  H  7989  7998       L1    16  0.69
      P1  H 10752 10764       L1    10  0.96

> <Gold.PLP.Chemscore.Internal.Correction>
0.3712

> <Gold.Rescore>
     Score         DG    S(hbond)    S(metal)    S(lipo)     H(rot)  DE(clash)    DE(int)     intcor
     10.88     -14.52       2.77        0.00      58.80       2.77       0.85       2.79       ----

> <Gold.Chemscore.Fitness>
10.8755

> <Gold.Chemscore.DG>
-14.5170

> <Gold.Chemscore.ZeroCoef>
-5.4800

> <Gold.Chemscore.Hbond>
2.7696

> <Gold.Chemscore.Metal>
0.0000

> <Gold.Chemscore.Lipo>
58.8039

> <Gold.Chemscore.Internal_Hbond>
0.0000

> <Gold.Chemscore.DEClash>
0.8514

> <Gold.Chemscore.DEInternal>
2.7901

> <Gold.Chemscore.Rot>
2.7709

> <Gold.Chemscore.Internal.Correction>
   9.000000E+99

> <Gold.Chemscore.Hbonds>
donor molecule, donor type, donor heavy atom, donor atom, acceptor molecule, acceptor atom, score
      L1  H     5    48       P1  7948  0.90
      L1  H     8    33       P1  7948  0.58
      P1  H  7989  7998       L1    16  0.08
      P1  H 10752 10764       L1    10  0.27

> <Gold.Chemscore.Hbond.Weighted>
-9.2505

> <Gold.Chemscore.Metal.Weighted>
-0.0000

> <Gold.Chemscore.Lipo.Weighted>
-6.8801

> <Gold.Chemscore.Internal_Hbond.Weighted>
0.0000

> <Gold.Chemscore.DEClash.Weighted>
0.8514

> <Gold.Chemscore.DEInternal.Weighted>
2.7901

> <Gold.Chemscore.Rot.Weighted>
7.0935

> <Gold.Chemscore.Internal.Correction.Weighted>
   9.000000E+99

> <Gold.Protein.RotatedTorsions>
[ 6907 6896 6895 6894 ] final  -25.72 input  -60.11 | X-H torsion
[ 7974 7965 7964 7962 ] final -132.85 input  175.53 | X-H torsion
[ 8008 7997 7996 7995 ] final  118.66 input   59.86 | X-H torsion
[ 10167 10162 10161 10158 ] final   37.69 input  -65.29 | X-H torsion
[ 10718 10713 10712 10709 ] final -109.65 input   66.30 | X-H torsion
[ 10763 10752 10751 10750 ] final  -27.19 input  -60.55 | X-H torsion
[ 11005 11000 10999 10996 ] final  -52.32 input  -57.11 | X-H torsion

> <Gold.Protein.ActiveResidues>
 VAL166  LYS551  ARG553  GLY616  TRP617  ASP618  TYR619  PRO620  LYS621  CYS622 
 ASP623  PHE694  ASN695  SER759  ASP760  ASP761  ALA762  ILE779  LEU786  VAL792 
 PHE793  MET794  SER795  GLU796  ALA797  LYS798  CYS799  TRP800  GLU811  SER814 

> <Gold.Protein.RotatedAtoms>
  151.1711  135.0318  159.8751 H   0  0  0  0  0  0  0  0  0  0  0  0  # atno 6907 bound_to 6896
  152.5449  134.1169  159.8392 H   0  0  0  0  0  0  0  0  0  0  0  0  # atno 6908 bound_to 6896
  151.1275  133.5013  159.2632 H   0  0  0  0  0  0  0  0  0  0  0  0  # atno 6909 bound_to 6896
  144.9247  140.7057  143.4943 H   0  0  0  0  0  0  0  0  0  0  0  0  # atno 7974 bound_to 7965
  156.2558  140.2870  156.0870 H   0  0  0  0  0  0  0  0  0  0  0  0  # atno 8008 bound_to 7997
  155.1504  140.0397  157.2837 H   0  0  0  0  0  0  0  0  0  0  0  0  # atno 8009 bound_to 7997
  154.6465  140.2534  155.7269 H   0  0  0  0  0  0  0  0  0  0  0  0  # atno 8010 bound_to 7997
  140.4008  144.1726  150.6133 H   0  0  0  0  0  0  0  0  0  0  0  0  # atno 10167 bound_to 10162
  156.0548  130.5774  150.8128 H   0  0  0  0  0  0  0  0  0  0  0  0  # atno 10718 bound_to 10713
  153.7281  135.6940  153.4996 H   0  0  0  0  0  0  0  0  0  0  0  0  # atno 10763 bound_to 10752
  153.2155  135.4388  155.0429 H   0  0  0  0  0  0  0  0  0  0  0  0  # atno 10764 bound_to 10752
  154.8262  135.3447  154.6812 H   0  0  0  0  0  0  0  0  0  0  0  0  # atno 10765 bound_to 10752
  141.0918  133.6631  156.4007 H   0  0  0  0  0  0  0  0  0  0  0  0  # atno 11005 bound_to 11000
  145.3239  139.1780  143.4573 LP  0  0  0  0  0  0  0  0  0  0  0  0  # atno 17320 bound_to 7965
  146.3220  140.3260  142.8637 LP  0  0  0  0  0  0  0  0  0  0  0  0  # atno 17321 bound_to 7965
  140.4742  143.2402  151.9047 LP  0  0  0  0  0  0  0  0  0  0  0  0  # atno 17342 bound_to 10162
  139.4785  144.5338  151.8628 LP  0  0  0  0  0  0  0  0  0  0  0  0  # atno 17343 bound_to 10162
  157.5508  131.0944  150.9698 LP  0  0  0  0  0  0  0  0  0  0  0  0  # atno 17370 bound_to 10713
  156.9958  130.5581  149.5307 LP  0  0  0  0  0  0  0  0  0  0  0  0  # atno 17371 bound_to 10713
  140.5234  134.6282  157.5326 LP  0  0  0  0  0  0  0  0  0  0  0  0  # atno 17394 bound_to 11000
  139.9745  134.7237  155.9976 LP  0  0  0  0  0  0  0  0  0  0  0  0  # atno 17395 bound_to 11000

$$$$
