AV-unprocessed.smi:867|AV-procd|sdf|3998|dock2
  -GOLD-   22720 1483D 1   1.00000     0.00000
 Structure written by MMmdl.
 54 57  0  0  0  0  0  0  0  0  3 V2000
  152.4031  139.9074  155.8873 O   0  0  0  0  0  0  0  0  0  0  0  0
  151.2024  139.6671  155.7546 C   0  0  0  0  0  0  0  0  0  0  0  0
  150.2729  140.1785  156.5807 N   0  0  0  0  0  0  0  0  0  0  0  0
  150.5211  141.0993  157.6872 C   0  0  0  0  0  0  0  0  0  0  0  0
  151.1228  142.4377  157.2183 C   0  0  0  0  0  0  0  0  0  0  0  0
  151.4259  143.4004  158.3529 C   0  0  0  0  0  0  0  0  0  0  0  0
  152.1612  142.9794  159.4835 C   0  0  0  0  0  0  0  0  0  0  0  0
  152.4404  143.9052  160.5103 C   0  0  0  0  0  0  0  0  0  0  0  0
  151.9765  145.2305  160.3848 C   0  0  0  0  0  0  0  0  0  0  0  0
  151.2736  145.5961  159.2904 N   0  3  0  0  0  0  0  0  0  0  0  0
  150.9851  144.7399  158.2862 C   0  0  0  0  0  0  0  0  0  0  0  0
  150.7161  138.8214  154.8121 N   0  0  0  0  0  0  0  0  0  0  0  0
  151.4701  137.7645  154.1250 C   0  0  0  0  0  0  0  0  0  0  0  0
  151.0554  136.4004  154.7061 C   0  0  0  0  0  0  0  0  0  0  0  0
  149.5838  136.1794  154.6027 N   0  3  0  0  0  0  0  0  0  0  0  0
  149.1599  134.8635  155.1628 C   0  0  2  0  0  0  0  0  0  0  0  0
  149.7835  133.6334  154.4573 C   0  0  0  0  0  0  0  0  0  0  0  0
  148.5635  132.7370  154.1723 C   0  0  2  0  0  0  0  0  0  0  0  0
  147.7849  133.3265  152.9841 C   0  0  0  0  0  0  0  0  0  0  0  0
  147.1594  134.5945  153.5917 C   0  0  0  0  0  0  0  0  0  0  0  0
  147.6452  134.5541  155.0574 C   0  0  1  0  0  0  0  0  0  0  0  0
  147.6367  133.0552  155.3394 C   0  0  0  0  0  0  0  0  0  0  0  0
  148.8038  137.3270  155.1499 C   0  0  0  0  0  0  0  0  0  0  0  0
  149.2799  138.6708  154.5679 C   0  0  0  0  0  0  0  0  0  0  0  0
  149.3109  139.9162  156.4223 H   0  0  0  0  0  0  0  0  0  0  0  0
  149.6084  141.2713  158.2605 H   0  0  0  0  0  0  0  0  0  0  0  0
  151.2174  140.6123  158.3702 H   0  0  0  0  0  0  0  0  0  0  0  0
  152.0483  142.2478  156.6736 H   0  0  0  0  0  0  0  0  0  0  0  0
  150.4483  142.9164  156.5071 H   0  0  0  0  0  0  0  0  0  0  0  0
  152.5142  141.9614  159.5625 H   0  0  0  0  0  0  0  0  0  0  0  0
  153.0033  143.6030  161.3812 H   0  0  0  0  0  0  0  0  0  0  0  0
  152.1448  146.0032  161.1207 H   0  0  0  0  0  0  0  0  0  0  0  0
  150.4219  145.1520  157.4615 H   0  0  0  0  0  0  0  0  0  0  0  0
  151.2426  137.7993  153.0586 H   0  0  0  0  0  0  0  0  0  0  0  0
  152.5521  137.8759  154.1928 H   0  0  0  0  0  0  0  0  0  0  0  0
  151.6006  135.6169  154.1811 H   0  0  0  0  0  0  0  0  0  0  0  0
  151.3553  136.3416  155.7538 H   0  0  0  0  0  0  0  0  0  0  0  0
  149.4396  134.8446  156.2181 H   0  0  0  0  0  0  0  0  0  0  0  0
  150.3074  133.8767  153.5324 H   0  0  0  0  0  0  0  0  0  0  0  0
  150.4920  133.1339  155.1190 H   0  0  0  0  0  0  0  0  0  0  0  0
  148.8112  131.6821  154.0517 H   0  0  0  0  0  0  0  0  0  0  0  0
  148.4273  133.5448  152.1301 H   0  0  0  0  0  0  0  0  0  0  0  0
  147.0079  132.6378  152.6495 H   0  0  0  0  0  0  0  0  0  0  0  0
  147.4639  135.5000  153.0668 H   0  0  0  0  0  0  0  0  0  0  0  0
  146.0711  134.5387  153.5453 H   0  0  0  0  0  0  0  0  0  0  0  0
  147.0261  135.1347  155.7418 H   0  0  0  0  0  0  0  0  0  0  0  0
  146.6488  132.6008  155.2436 H   0  0  0  0  0  0  0  0  0  0  0  0
  148.0582  132.7916  156.3112 H   0  0  0  0  0  0  0  0  0  0  0  0
  147.7444  137.2089  154.9241 H   0  0  0  0  0  0  0  0  0  0  0  0
  148.8973  137.3413  156.2371 H   0  0  0  0  0  0  0  0  0  0  0  0
  148.6938  139.4894  154.9883 H   0  0  0  0  0  0  0  0  0  0  0  0
  149.0935  138.6991  153.4932 H   0  0  0  0  0  0  0  0  0  0  0  0
  149.3728  136.1479  153.6154 H   0  0  0  0  0  0  0  0  0  0  0  0
  150.9481  146.5604  159.2181 H   0  0  0  0  0  0  0  0  0  0  0  0
  1  2  2  0  0  0  0
  2  3  1  0  0  0  0
  2 12  1  0  0  0  0
  3  4  1  0  0  0  0
  3 25  1  0  0  0  0
  4  5  1  0  0  0  0
  4 26  1  0  0  0  0
  4 27  1  0  0  0  0
  5  6  1  0  0  0  0
  5 28  1  0  0  0  0
  5 29  1  0  0  0  0
  6 11  1  0  0  0  0
  6  7  2  0  0  0  0
  7  8  1  0  0  0  0
  7 30  1  0  0  0  0
  8  9  2  0  0  0  0
  8 31  1  0  0  0  0
  9 10  1  0  0  0  0
  9 32  1  0  0  0  0
 10 11  2  0  0  0  0
 10 54  1  0  0  0  0
 11 33  1  0  0  0  0
 12 24  1  0  0  0  0
 12 13  1  0  0  0  0
 13 14  1  0  0  0  0
 13 34  1  0  0  0  0
 13 35  1  0  0  0  0
 14 15  1  0  0  0  0
 14 36  1  0  0  0  0
 14 37  1  0  0  0  0
 15 16  1  0  0  0  0
 15 23  1  0  0  0  0
 15 53  1  0  0  0  0
 16 21  1  0  0  0  0
 16 17  1  0  0  0  0
 16 38  1  0  0  0  0
 17 18  1  0  0  0  0
 17 39  1  0  0  0  0
 17 40  1  0  0  0  0
 18 22  1  0  0  0  0
 18 19  1  0  0  0  0
 18 41  1  0  0  0  0
 19 20  1  0  0  0  0
 19 42  1  0  0  0  0
 19 43  1  0  0  0  0
 20 21  1  0  0  0  0
 20 44  1  0  0  0  0
 20 45  1  0  0  0  0
 21 22  1  0  0  0  0
 21 46  1  0  0  0  0
 22 47  1  0  0  0  0
 22 48  1  0  0  0  0
 23 24  1  0  0  0  0
 23 49  1  0  0  0  0
 23 50  1  0  0  0  0
 24 51  1  0  0  0  0
 24 52  1  0  0  0  0
M  CHG  1  10   1
M  CHG  1  15   1
M  END
> <s_m_source_file>
AV-unprocessed.smi

> <i_m_source_file_index>
867

> <i_lp_mmshare_version>
43012

> <i_f3d_flags>
0

> <s_epik_input>
W0NIMl0xW0NIMl1bQ0BASF0oW0NIMl0yKVtDQEBIXShbQ0gyXVtDQEhdMTIpTihbQ0gyXVtDSDJdMylbQ0gyXVtDSDJdTjNDKD1PKVtOSF1bQ0gyXVtDSDJdYzRbY0hdW2NIXVtjSF1uW2NIXTQ=

> <s_epik_cmdline>
J2VwaWtfcHl0aG9uJywgJy1waCcsICc3LjAnLCAnLXRuJywgJzgnLCAnLW1hJywgJzIwMCcsICctbWV0YWxfYmluZGluZycsICctaW1hZScsICc8aW5maWxlLm1hZT4nLCAnLW9tYWUnLCAnPG91dGZpbGUubWFlPic=

> <r_epik_Ionization_Penalty>
2.25108

> <r_epik_Ionization_Penalty_Charging>
2.25105

> <r_epik_Ionization_Penalty_Neutral>
2.64641e-05

> <r_epik_State_Penalty>
2.39519

> <r_epik_Charging_Adjusted_Penalty>
4.64625

> <i_epik_Tot_Q>
2

> <i_epik_Tot_abs_Q>
2

> <r_epik_Metal_State_Penalty>
2.40865

> <b_epik_Metal_Only>
0

> <s_lp_Force_Field>
OPLS_2005

> <r_lp_Energy>
106.832

> <b_lp_Chiralities_Consistent>
1

> <s_lp_Variant>
AV-unprocessed.smi:867-5

> <Gold.Version>
5.8.1

> <Gold.Id.Protein>
6NUR|6NUR_protein|mol2

> <Gold.PLP.Fitness>
50.7806

> <Gold.PLP.PLP>
-43.8417

> <Gold.PLP.part.hbond>
-2.0000

> <Gold.PLP.part.metal>
0.0000

> <Gold.PLP.part.buried>
-1.8359

> <Gold.PLP.part.nonpolar>
-39.9178

> <Gold.PLP.part.repulsive>
0.7602

> <Gold.PLP.ligand.clash>
1.6651

> <Gold.PLP.ligand.torsion>
0.2678

> <Gold.PLP.Chemscore.Hbond>
3.0000

> <Gold.PLP.Chemscore.CHOScore>
0.0000

> <Gold.PLP.Chemscore.Metal>
0.0000

> <Gold.Chemscore.Hbonds>
donor molecule, donor type, donor heavy atom, donor atom, acceptor molecule, acceptor atom, score
      L1  H    15    53       P1  7948  2.00
      P1  H  7997  8010       L1     1  1.00

> <Gold.PLP.Chemscore.Internal.Correction>
0.1394

> <Gold.Rescore>
     Score         DG    S(hbond)    S(metal)    S(lipo)     H(rot)  DE(clash)    DE(int)     intcor
     21.25     -21.51       1.84        0.00     116.35       1.46       0.05       0.21       ----

> <Gold.Chemscore.Fitness>
21.2473

> <Gold.Chemscore.DG>
-21.5110

> <Gold.Chemscore.ZeroCoef>
-5.4800

> <Gold.Chemscore.Hbond>
1.8409

> <Gold.Chemscore.Metal>
0.0000

> <Gold.Chemscore.Lipo>
116.3504

> <Gold.Chemscore.Internal_Hbond>
0.0000

> <Gold.Chemscore.DEClash>
0.0541

> <Gold.Chemscore.DEInternal>
0.2096

> <Gold.Chemscore.Rot>
1.4572

> <Gold.Chemscore.Internal.Correction>
   9.000000E+99

> <Gold.Chemscore.Hbonds>
donor molecule, donor type, donor heavy atom, donor atom, acceptor molecule, acceptor atom, score
      L1  H    15    53       P1  7948  0.74
      P1  H  7997  8010       L1     1  0.97

> <Gold.Chemscore.Hbond.Weighted>
-6.1485

> <Gold.Chemscore.Metal.Weighted>
-0.0000

> <Gold.Chemscore.Lipo.Weighted>
-13.6130

> <Gold.Chemscore.Internal_Hbond.Weighted>
0.0000

> <Gold.Chemscore.DEClash.Weighted>
0.0541

> <Gold.Chemscore.DEInternal.Weighted>
0.2096

> <Gold.Chemscore.Rot.Weighted>
3.7305

> <Gold.Chemscore.Internal.Correction.Weighted>
   9.000000E+99

> <Gold.Protein.RotatedTorsions>
[ 6907 6896 6895 6894 ] final   46.78 input  -60.11 | X-H torsion
[ 7974 7965 7964 7962 ] final   76.78 input  175.53 | X-H torsion
[ 8008 7997 7996 7995 ] final   79.92 input   59.86 | X-H torsion
[ 10167 10162 10161 10158 ] final -139.02 input  -65.29 | X-H torsion
[ 10718 10713 10712 10709 ] final   18.49 input   66.30 | X-H torsion
[ 10763 10752 10751 10750 ] final  131.69 input  -60.55 | X-H torsion
[ 11005 11000 10999 10996 ] final  -48.07 input  -57.11 | X-H torsion

> <Gold.Protein.ActiveResidues>
 VAL166  LYS551  ARG553  GLY616  TRP617  ASP618  TYR619  PRO620  LYS621  CYS622 
 ASP623  PHE694  ASN695  SER759  ASP760  ASP761  ALA762  ILE779  LEU786  VAL792 
 PHE793  MET794  SER795  GLU796  ALA797  LYS798  CYS799  TRP800  GLU811  SER814 

> <Gold.Protein.RotatedAtoms>
  152.2603  134.8040  160.0431 H   0  0  0  0  0  0  0  0  0  0  0  0  # atno 6907 bound_to 6896
  151.8689  133.3466  159.3736 H   0  0  0  0  0  0  0  0  0  0  0  0  # atno 6908 bound_to 6896
  150.7114  134.5060  159.5628 H   0  0  0  0  0  0  0  0  0  0  0  0  # atno 6909 bound_to 6896
  145.6985  139.2575  143.1719 H   0  0  0  0  0  0  0  0  0  0  0  0  # atno 7974 bound_to 7965
  155.8764  140.3446  155.5857 H   0  0  0  0  0  0  0  0  0  0  0  0  # atno 8008 bound_to 7997
  155.7770  140.0853  157.2098 H   0  0  0  0  0  0  0  0  0  0  0  0  # atno 8009 bound_to 7997
  154.4021  140.1508  156.2995 H   0  0  0  0  0  0  0  0  0  0  0  0  # atno 8010 bound_to 7997
  139.8420  143.7309  152.2662 H   0  0  0  0  0  0  0  0  0  0  0  0  # atno 10167 bound_to 10162
  157.0971  130.6452  149.5863 H   0  0  0  0  0  0  0  0  0  0  0  0  # atno 10718 bound_to 10713
  153.7784  135.3172  155.3362 H   0  0  0  0  0  0  0  0  0  0  0  0  # atno 10763 bound_to 10752
  154.8170  135.4629  154.0675 H   0  0  0  0  0  0  0  0  0  0  0  0  # atno 10764 bound_to 10752
  153.1956  135.6915  153.8381 H   0  0  0  0  0  0  0  0  0  0  0  0  # atno 10765 bound_to 10752
  141.0679  133.6688  156.3389 H   0  0  0  0  0  0  0  0  0  0  0  0  # atno 11005 bound_to 11000
  146.0819  140.7754  142.9637 LP  0  0  0  0  0  0  0  0  0  0  0  0  # atno 17320 bound_to 7965
  144.6975  140.3502  143.7183 LP  0  0  0  0  0  0  0  0  0  0  0  0  # atno 17321 bound_to 7965
  139.7549  144.7523  151.0450 LP  0  0  0  0  0  0  0  0  0  0  0  0  # atno 17342 bound_to 10162
  140.7797  143.4817  151.0010 LP  0  0  0  0  0  0  0  0  0  0  0  0  # atno 17343 bound_to 10162
  155.9883  130.4926  150.7164 LP  0  0  0  0  0  0  0  0  0  0  0  0  # atno 17370 bound_to 10713
  157.4672  131.0889  151.0682 LP  0  0  0  0  0  0  0  0  0  0  0  0  # atno 17371 bound_to 10713
  140.5735  134.5816  157.5463 LP  0  0  0  0  0  0  0  0  0  0  0  0  # atno 17394 bound_to 11000
  139.9494  134.7644  156.0484 LP  0  0  0  0  0  0  0  0  0  0  0  0  # atno 17395 bound_to 11000

$$$$
