AV-unprocessed.smi:2148|AV-procd|sdf|8748|dock1
  -GOLD-   2272011523D 1   1.00000     0.00000
 Structure written by MMmdl.
 44 45  0  0  0  0  0  0  0  0  1 V2000
  157.7038  138.8011  167.8462 C   0  0  0  0  0  0  0  0  0  0  0  0
  156.5807  139.3170  166.5187 S   0  0  0  0  0  0  0  0  0  0  0  0
  156.1729  141.0089  167.0452 C   0  0  2  0  0  0  0  0  0  0  0  0
  155.4492  140.9825  168.4009 C   0  0  0  0  0  0  0  0  0  0  0  0
  155.3515  141.7560  165.9861 C   0  0  0  0  0  0  0  0  0  0  0  0
  154.8688  142.8572  166.2500 O   0  0  0  0  0  0  0  0  0  0  0  0
  155.1904  141.1153  164.8130 N   0  0  0  0  0  0  0  0  0  0  0  0
  154.4601  141.5360  163.6699 C   0  0  0  0  0  0  0  0  0  0  0  0
  153.8705  142.8145  163.6938 C   0  0  0  0  0  0  0  0  0  0  0  0
  153.1366  143.2548  162.5766 C   0  0  0  0  0  0  0  0  0  0  0  0
  153.0014  142.3980  161.4596 C   0  0  0  0  0  0  0  0  0  0  0  0
  152.2849  142.8290  160.3231 N   0  0  0  0  0  0  0  0  0  0  0  0
  152.7195  144.1061  159.7643 C   0  0  0  0  0  0  0  0  0  0  0  0
  151.6985  144.6396  158.7404 C   0  0  2  0  0  0  0  0  0  0  0  0
  150.4308  145.2240  159.3889 C   0  0  0  0  0  0  0  0  0  0  0  0
  151.3964  143.6327  157.7721 O   0  0  0  0  0  0  0  0  0  0  0  0
  150.9203  142.4030  158.3175 C   0  0  1  0  0  0  0  0  0  0  0  0
  150.6523  141.4426  157.1545 C   0  0  0  0  0  0  0  0  0  0  0  0
  151.9603  141.8377  159.3013 C   0  0  0  0  0  0  0  0  0  0  0  0
  153.5446  141.1559  161.4483 N   0  0  0  0  0  0  0  0  0  0  0  0
  154.2505  140.7383  162.5204 C   0  0  0  0  0  0  0  0  0  0  0  0
  157.9977  137.7616  167.7025 H   0  0  0  0  0  0  0  0  0  0  0  0
  157.2149  138.8905  168.8163 H   0  0  0  0  0  0  0  0  0  0  0  0
  158.6058  139.4130  167.8509 H   0  0  0  0  0  0  0  0  0  0  0  0
  157.1163  141.5374  167.1910 H   0  0  0  0  0  0  0  0  0  0  0  0
  155.1765  141.9871  168.7262 H   0  0  0  0  0  0  0  0  0  0  0  0
  156.0886  140.5520  169.1720 H   0  0  0  0  0  0  0  0  0  0  0  0
  154.5375  140.3849  168.3594 H   0  0  0  0  0  0  0  0  0  0  0  0
  155.5710  140.1814  164.7651 H   0  0  0  0  0  0  0  0  0  0  0  0
  153.9820  143.4570  164.5552 H   0  0  0  0  0  0  0  0  0  0  0  0
  152.6798  144.2335  162.5907 H   0  0  0  0  0  0  0  0  0  0  0  0
  152.8829  144.8558  160.5376 H   0  0  0  0  0  0  0  0  0  0  0  0
  153.6810  143.9509  159.2728 H   0  0  0  0  0  0  0  0  0  0  0  0
  152.1742  145.4533  158.1921 H   0  0  0  0  0  0  0  0  0  0  0  0
  150.6802  146.0784  160.0183 H   0  0  0  0  0  0  0  0  0  0  0  0
  149.9159  144.4994  160.0190 H   0  0  0  0  0  0  0  0  0  0  0  0
  149.7279  145.5678  158.6297 H   0  0  0  0  0  0  0  0  0  0  0  0
  149.9780  142.5726  158.8387 H   0  0  0  0  0  0  0  0  0  0  0  0
  150.2742  140.4854  157.5146 H   0  0  0  0  0  0  0  0  0  0  0  0
  151.5610  141.2512  156.5832 H   0  0  0  0  0  0  0  0  0  0  0  0
  149.9108  141.8573  156.4711 H   0  0  0  0  0  0  0  0  0  0  0  0
  152.8714  141.5597  158.7692 H   0  0  0  0  0  0  0  0  0  0  0  0
  151.5645  140.9337  159.7664 H   0  0  0  0  0  0  0  0  0  0  0  0
  154.6339  139.7326  162.4451 H   0  0  0  0  0  0  0  0  0  0  0  0
  1  2  1  0  0  0  0
  1 22  1  0  0  0  0
  1 23  1  0  0  0  0
  1 24  1  0  0  0  0
  2  3  1  0  0  0  0
  3  4  1  0  0  0  0
  3  5  1  0  0  0  0
  3 25  1  0  0  0  0
  4 26  1  0  0  0  0
  4 27  1  0  0  0  0
  4 28  1  0  0  0  0
  5  6  2  0  0  0  0
  5  7  1  0  0  0  0
  7  8  1  0  0  0  0
  7 29  1  0  0  0  0
  8 21  1  0  0  0  0
  8  9  2  0  0  0  0
  9 10  1  0  0  0  0
  9 30  1  0  0  0  0
 10 11  2  0  0  0  0
 10 31  1  0  0  0  0
 11 12  1  0  0  0  0
 11 20  1  0  0  0  0
 12 19  1  0  0  0  0
 12 13  1  0  0  0  0
 13 14  1  0  0  0  0
 13 32  1  0  0  0  0
 13 33  1  0  0  0  0
 14 15  1  0  0  0  0
 14 16  1  0  0  0  0
 14 34  1  0  0  0  0
 15 35  1  0  0  0  0
 15 36  1  0  0  0  0
 15 37  1  0  0  0  0
 16 17  1  0  0  0  0
 17 18  1  0  0  0  0
 17 19  1  0  0  0  0
 17 38  1  0  0  0  0
 18 39  1  0  0  0  0
 18 40  1  0  0  0  0
 18 41  1  0  0  0  0
 19 42  1  0  0  0  0
 19 43  1  0  0  0  0
 20 21  2  0  0  0  0
 21 44  1  0  0  0  0
M  END
> <s_m_source_file>
AV-unprocessed.smi

> <i_m_source_file_index>
2148

> <i_lp_mmshare_version>
43012

> <i_f3d_flags>
0

> <s_epik_input>
W0NIM11TW0NASF0oW0NIM10pQyg9TylbTkhdYzFbY0hdW2NIXWMobltjSF0xKU4yW0NIMl1bQ0BASF0oW0NIM10pT1tDQEBIXShbQ0gzXSlbQ0gyXTI=

> <s_epik_cmdline>
J2VwaWtfcHl0aG9uJywgJy1waCcsICc3LjAnLCAnLXRuJywgJzgnLCAnLW1hJywgJzIwMCcsICctbWV0YWxfYmluZGluZycsICctaW1hZScsICc8aW5maWxlLm1hZT4nLCAnLW9tYWUnLCAnPG91dGZpbGUubWFlPic=

> <r_lp_tautomer_probability>
1

> <r_epik_Ionization_Penalty>
0.000646494

> <r_epik_Ionization_Penalty_Charging>
0

> <r_epik_Ionization_Penalty_Neutral>
0.000646494

> <r_epik_State_Penalty>
0.000408447

> <r_epik_Charging_Adjusted_Penalty>
0.000408447

> <i_epik_Tot_Q>
0

> <i_epik_Tot_abs_Q>
0

> <r_epik_Metal_State_Penalty>
-0

> <b_epik_Metal_Only>
0

> <s_lp_Force_Field>
OPLS_2005

> <r_lp_Energy>
25.6211

> <b_lp_Chiralities_Consistent>
1

> <s_lp_Variant>
AV-unprocessed.smi:2148-3

> <Gold.Version>
5.8.1

> <Gold.Id.Protein>
6NUR|6NUR_protein|mol2

> <Gold.PLP.Fitness>
41.7347

> <Gold.PLP.PLP>
-42.2671

> <Gold.PLP.part.hbond>
-0.7121

> <Gold.PLP.part.metal>
0.0000

> <Gold.PLP.part.buried>
-5.1650

> <Gold.PLP.part.nonpolar>
-35.6599

> <Gold.PLP.part.repulsive>
0.2052

> <Gold.PLP.ligand.clash>
0.1974

> <Gold.PLP.ligand.torsion>
0.3417

> <Gold.PLP.Chemscore.Hbond>
0.0000

> <Gold.PLP.Chemscore.CHOScore>
0.0000

> <Gold.PLP.Chemscore.Metal>
0.0000

> <Gold.PLP.Chemscore.Internal.Correction>
0.3484

> <Gold.Rescore>
     Score         DG    S(hbond)    S(metal)    S(lipo)     H(rot)  DE(clash)    DE(int)     intcor
     13.01     -15.49       0.00        0.00     113.27       1.27       0.65       1.83       ----

> <Gold.Chemscore.Fitness>
13.0073

> <Gold.Chemscore.DG>
-15.4915

> <Gold.Chemscore.ZeroCoef>
-5.4800

> <Gold.Chemscore.Hbond>
0.0000

> <Gold.Chemscore.Metal>
0.0000

> <Gold.Chemscore.Lipo>
113.2656

> <Gold.Chemscore.Internal_Hbond>
0.0000

> <Gold.Chemscore.DEClash>
0.6502

> <Gold.Chemscore.DEInternal>
1.8340

> <Gold.Chemscore.Rot>
1.2659

> <Gold.Chemscore.Internal.Correction>
   9.000000E+99

> <Gold.Chemscore.Hbond.Weighted>
-0.0000

> <Gold.Chemscore.Metal.Weighted>
-0.0000

> <Gold.Chemscore.Lipo.Weighted>
-13.2521

> <Gold.Chemscore.Internal_Hbond.Weighted>
0.0000

> <Gold.Chemscore.DEClash.Weighted>
0.6502

> <Gold.Chemscore.DEInternal.Weighted>
1.8340

> <Gold.Chemscore.Rot.Weighted>
3.2406

> <Gold.Chemscore.Internal.Correction.Weighted>
   9.000000E+99

> <Gold.Protein.RotatedTorsions>
[ 6907 6896 6895 6894 ] final -166.72 input  -60.11 | X-H torsion
[ 7974 7965 7964 7962 ] final    9.05 input  175.53 | X-H torsion
[ 8008 7997 7996 7995 ] final   21.33 input   59.86 | X-H torsion
[ 10167 10162 10161 10158 ] final -107.37 input  -65.29 | X-H torsion
[ 10718 10713 10712 10709 ] final  -70.28 input   66.30 | X-H torsion
[ 10763 10752 10751 10750 ] final  -40.92 input  -60.55 | X-H torsion
[ 11005 11000 10999 10996 ] final  109.31 input  -57.11 | X-H torsion

> <Gold.Protein.ActiveResidues>
 VAL166  LYS551  ARG553  GLY616  TRP617  ASP618  TYR619  PRO620  LYS621  CYS622 
 ASP623  PHE694  ASN695  SER759  ASP760  ASP761  ALA762  ILE779  LEU786  VAL792 
 PHE793  MET794  SER795  GLU796  ALA797  LYS798  CYS799  TRP800  GLU811  SER814 

> <Gold.Protein.RotatedAtoms>
  151.4481  133.3625  159.2791 H   0  0  0  0  0  0  0  0  0  0  0  0  # atno 6907 bound_to 6896
  150.9110  134.8528  159.7436 H   0  0  0  0  0  0  0  0  0  0  0  0  # atno 6908 bound_to 6896
  152.4932  134.4411  159.9595 H   0  0  0  0  0  0  0  0  0  0  0  0  # atno 6909 bound_to 6896
  146.2408  139.9841  142.8433 H   0  0  0  0  0  0  0  0  0  0  0  0  # atno 7974 bound_to 7965
  154.9489  140.3063  155.5084 H   0  0  0  0  0  0  0  0  0  0  0  0  # atno 8008 bound_to 7997
  156.2989  140.2322  156.4503 H   0  0  0  0  0  0  0  0  0  0  0  0  # atno 8009 bound_to 7997
  154.8073  140.0430  157.1306 H   0  0  0  0  0  0  0  0  0  0  0  0  # atno 8010 bound_to 7997
  140.1777  143.3991  152.1305 H   0  0  0  0  0  0  0  0  0  0  0  0  # atno 10167 bound_to 10162
  156.0415  130.4328  150.2273 H   0  0  0  0  0  0  0  0  0  0  0  0  # atno 10718 bound_to 10713
  153.9539  135.6747  153.4744 H   0  0  0  0  0  0  0  0  0  0  0  0  # atno 10763 bound_to 10752
  153.0871  135.4893  154.8614 H   0  0  0  0  0  0  0  0  0  0  0  0  # atno 10764 bound_to 10752
  154.7310  135.3138  154.8851 H   0  0  0  0  0  0  0  0  0  0  0  0  # atno 10765 bound_to 10752
  139.8859  134.9454  156.6106 H   0  0  0  0  0  0  0  0  0  0  0  0  # atno 11005 bound_to 11000
  145.1564  140.9650  143.4403 LP  0  0  0  0  0  0  0  0  0  0  0  0  # atno 17320 bound_to 7965
  145.0157  139.3469  143.6098 LP  0  0  0  0  0  0  0  0  0  0  0  0  # atno 17321 bound_to 7965
  139.5310  144.7158  151.5058 LP  0  0  0  0  0  0  0  0  0  0  0  0  # atno 17342 bound_to 10162
  140.6540  143.8638  150.6815 LP  0  0  0  0  0  0  0  0  0  0  0  0  # atno 17343 bound_to 10162
  157.0367  131.0023  151.3296 LP  0  0  0  0  0  0  0  0  0  0  0  0  # atno 17370 bound_to 10713
  157.5239  130.8015  149.7839 LP  0  0  0  0  0  0  0  0  0  0  0  0  # atno 17371 bound_to 10713
  140.7814  133.8656  155.8571 LP  0  0  0  0  0  0  0  0  0  0  0  0  # atno 17394 bound_to 11000
  140.9757  134.1473  157.4538 LP  0  0  0  0  0  0  0  0  0  0  0  0  # atno 17395 bound_to 11000

$$$$
