AV-unprocessed.smi:415|AV-procd|sdf|2520|dock4
  -GOLD-   2262022473D 1   1.00000     0.00000
 Structure written by MMmdl.
 53 54  0  0  0  0  0  0  0  0  1 V2000
  155.7966  139.9375  166.7537 C   0  0  0  0  0  0  0  0  0  0  0  0
  156.0059  140.4329  165.4434 O   0  0  0  0  0  0  0  0  0  0  0  0
  156.0763  139.4001  164.4745 C   0  0  0  0  0  0  0  0  0  0  0  0
  154.8417  138.4899  164.5838 C   0  0  0  0  0  0  0  0  0  0  0  0
  154.7080  137.5758  163.4649 N   0  0  0  0  0  0  0  0  0  0  0  0
  154.6973  136.1920  163.6144 C   0  0  0  0  0  0  0  0  0  0  0  0
  154.7931  135.6412  164.8799 N   0  0  0  0  0  0  0  0  0  0  0  0
  154.5840  135.3686  162.5488 C   0  0  0  0  0  0  0  0  0  0  0  0
  154.4640  135.8799  161.1908 C   0  0  0  0  0  0  0  0  0  0  0  0
  154.3948  135.1466  160.2044 O   0  0  0  0  0  0  0  0  0  0  0  0
  154.4449  137.2878  161.0646 N   0  0  0  0  0  0  0  0  0  0  0  0
  154.3426  137.8808  159.7098 C   0  0  0  0  0  0  0  0  0  0  0  0
  153.1077  138.7732  159.4893 C   0  0  0  0  0  0  0  0  0  0  0  0
  151.9865  138.2689  159.5383 O   0  0  0  0  0  0  0  0  0  0  0  0
  153.3091  140.0820  159.2619 N   0  0  0  0  0  0  0  0  0  0  0  0
  152.2735  141.0982  159.1016 C   0  0  2  0  0  0  0  0  0  0  0  0
  151.9163  141.2394  157.6095 C   0  0  0  0  0  0  0  0  0  0  0  0
  150.8629  142.3295  157.3929 C   0  0  0  0  0  0  0  0  0  0  0  0
  151.3472  143.6687  157.9589 C   0  0  0  0  0  0  0  0  0  0  0  0
  151.6985  143.5672  159.4570 C   0  0  2  0  0  0  0  0  0  0  0  0
  152.1494  144.9464  159.9724 C   0  0  0  0  0  0  0  0  0  0  0  0
  152.7457  142.4460  159.7121 C   0  0  1  0  0  0  0  0  0  0  0  0
  153.0777  142.2909  161.2134 C   0  0  0  0  0  0  0  0  0  0  0  0
  154.5584  138.1528  162.1776 C   0  0  0  0  0  0  0  0  0  0  0  0
  154.5407  139.3758  162.0157 O   0  0  0  0  0  0  0  0  0  0  0  0
  155.7528  140.7691  167.4567 H   0  0  0  0  0  0  0  0  0  0  0  0
  156.6098  139.2789  167.0615 H   0  0  0  0  0  0  0  0  0  0  0  0
  154.8562  139.3889  166.8216 H   0  0  0  0  0  0  0  0  0  0  0  0
  156.1099  139.8435  163.4786 H   0  0  0  0  0  0  0  0  0  0  0  0
  156.9906  138.8185  164.6009 H   0  0  0  0  0  0  0  0  0  0  0  0
  154.8237  137.9217  165.5151 H   0  0  0  0  0  0  0  0  0  0  0  0
  153.9265  139.0811  164.6026 H   0  0  0  0  0  0  0  0  0  0  0  0
  154.8713  136.2157  165.7069 H   0  0  0  0  0  0  0  0  0  0  0  0
  154.8109  134.6423  165.0265 H   0  0  0  0  0  0  0  0  0  0  0  0
  154.5837  134.2981  162.6979 H   0  0  0  0  0  0  0  0  0  0  0  0
  155.2291  138.4678  159.4664 H   0  0  0  0  0  0  0  0  0  0  0  0
  154.3356  137.0977  158.9499 H   0  0  0  0  0  0  0  0  0  0  0  0
  154.2646  140.4069  159.2335 H   0  0  0  0  0  0  0  0  0  0  0  0
  151.3813  140.7775  159.6432 H   0  0  0  0  0  0  0  0  0  0  0  0
  152.8118  141.4785  157.0340 H   0  0  0  0  0  0  0  0  0  0  0  0
  151.5422  140.2925  157.2190 H   0  0  0  0  0  0  0  0  0  0  0  0
  150.6459  142.4312  156.3293 H   0  0  0  0  0  0  0  0  0  0  0  0
  149.9282  142.0406  157.8748 H   0  0  0  0  0  0  0  0  0  0  0  0
  152.2190  144.0061  157.3967 H   0  0  0  0  0  0  0  0  0  0  0  0
  150.5736  144.4223  157.8073 H   0  0  0  0  0  0  0  0  0  0  0  0
  150.7845  143.3023  159.9910 H   0  0  0  0  0  0  0  0  0  0  0  0
  153.1099  145.2353  159.5449 H   0  0  0  0  0  0  0  0  0  0  0  0
  152.2435  144.9655  161.0575 H   0  0  0  0  0  0  0  0  0  0  0  0
  151.4256  145.7180  159.7085 H   0  0  0  0  0  0  0  0  0  0  0  0
  153.6680  142.7340  159.2042 H   0  0  0  0  0  0  0  0  0  0  0  0
  152.1859  142.0463  161.7912 H   0  0  0  0  0  0  0  0  0  0  0  0
  153.5076  143.2006  161.6300 H   0  0  0  0  0  0  0  0  0  0  0  0
  153.8105  141.5039  161.3914 H   0  0  0  0  0  0  0  0  0  0  0  0
  1  2  1  0  0  0  0
  1 26  1  0  0  0  0
  1 27  1  0  0  0  0
  1 28  1  0  0  0  0
  2  3  1  0  0  0  0
  3  4  1  0  0  0  0
  3 29  1  0  0  0  0
  3 30  1  0  0  0  0
  4  5  1  0  0  0  0
  4 31  1  0  0  0  0
  4 32  1  0  0  0  0
  5 24  1  0  0  0  0
  5  6  1  0  0  0  0
  6  7  1  0  0  0  0
  6  8  2  0  0  0  0
  7 33  1  0  0  0  0
  7 34  1  0  0  0  0
  8  9  1  0  0  0  0
  8 35  1  0  0  0  0
  9 10  2  0  0  0  0
  9 11  1  0  0  0  0
 11 12  1  0  0  0  0
 11 24  1  0  0  0  0
 12 13  1  0  0  0  0
 12 36  1  0  0  0  0
 12 37  1  0  0  0  0
 13 14  2  0  0  0  0
 13 15  1  0  0  0  0
 15 16  1  0  0  0  0
 15 38  1  0  0  0  0
 16 22  1  0  0  0  0
 16 17  1  0  0  0  0
 16 39  1  0  0  0  0
 17 18  1  0  0  0  0
 17 40  1  0  0  0  0
 17 41  1  0  0  0  0
 18 19  1  0  0  0  0
 18 42  1  0  0  0  0
 18 43  1  0  0  0  0
 19 20  1  0  0  0  0
 19 44  1  0  0  0  0
 19 45  1  0  0  0  0
 20 21  1  0  0  0  0
 20 22  1  0  0  0  0
 20 46  1  0  0  0  0
 21 47  1  0  0  0  0
 21 48  1  0  0  0  0
 21 49  1  0  0  0  0
 22 23  1  0  0  0  0
 22 50  1  0  0  0  0
 23 51  1  0  0  0  0
 23 52  1  0  0  0  0
 23 53  1  0  0  0  0
 24 25  2  0  0  0  0
M  END
> <s_m_source_file>
AV-unprocessed.smi

> <i_m_source_file_index>
415

> <i_lp_mmshare_version>
43012

> <i_f3d_flags>
0

> <s_epik_input>
W0NIM11PW0NIMl1bQ0gyXW4xYyhbTkgyXSlbY0hdYyg9TyluKGMxPU8pW0NIMl1DKD1PKVtOSF1bQ0BASF0yW0NIMl1bQ0gyXVtDSDJdW0NAQEhdKFtDSDNdKVtDQEhdMltDSDNd

> <s_epik_cmdline>
J2VwaWtfcHl0aG9uJywgJy1waCcsICc3LjAnLCAnLXRuJywgJzgnLCAnLW1hJywgJzIwMCcsICctbWV0YWxfYmluZGluZycsICctaW1hZScsICc8aW5maWxlLm1hZT4nLCAnLW9tYWUnLCAnPG91dGZpbGUubWFlPic=

> <r_lp_tautomer_probability>
1

> <r_epik_Ionization_Penalty>
8.6647e-06

> <r_epik_Ionization_Penalty_Charging>
1.81162e-08

> <r_epik_Ionization_Penalty_Neutral>
8.64658e-06

> <r_epik_State_Penalty>
-0

> <r_epik_Charging_Adjusted_Penalty>
1.81162e-08

> <i_epik_Tot_Q>
0

> <i_epik_Tot_abs_Q>
0

> <r_epik_Metal_State_Penalty>
-0

> <b_epik_Metal_Only>
0

> <s_lp_Force_Field>
OPLS_2005

> <r_lp_Energy>
21.9512

> <b_lp_Chiralities_Consistent>
1

> <s_lp_Variant>
AV-unprocessed.smi:415-3

> <Gold.Version>
5.8.1

> <Gold.Id.Protein>
6NUR|6NUR_protein|mol2

> <Gold.PLP.Fitness>
46.9450

> <Gold.PLP.PLP>
-44.7401

> <Gold.PLP.part.hbond>
-2.0000

> <Gold.PLP.part.metal>
0.0000

> <Gold.PLP.part.buried>
-7.0340

> <Gold.PLP.part.nonpolar>
-35.4242

> <Gold.PLP.part.repulsive>
0.1559

> <Gold.PLP.ligand.clash>
0.0000

> <Gold.PLP.ligand.torsion>
0.4313

> <Gold.PLP.Chemscore.Hbond>
1.0000

> <Gold.PLP.Chemscore.CHOScore>
0.0000

> <Gold.PLP.Chemscore.Metal>
0.0000

> <Gold.Chemscore.Hbonds>
donor molecule, donor type, donor heavy atom, donor atom, acceptor molecule, acceptor atom, score
      P1  H  6896  6909       L1    10  1.00

> <Gold.PLP.Chemscore.Internal.Correction>
0.0677

> <Gold.Rescore>
     Score         DG    S(hbond)    S(metal)    S(lipo)     H(rot)  DE(clash)    DE(int)     intcor
     12.81     -15.27       0.96        0.00     105.77       2.26       0.15       2.31       ----

> <Gold.Chemscore.Fitness>
12.8110

> <Gold.Chemscore.DG>
-15.2714

> <Gold.Chemscore.ZeroCoef>
-5.4800

> <Gold.Chemscore.Hbond>
0.9621

> <Gold.Chemscore.Metal>
0.0000

> <Gold.Chemscore.Lipo>
105.7713

> <Gold.Chemscore.Internal_Hbond>
0.0000

> <Gold.Chemscore.DEClash>
0.1548

> <Gold.Chemscore.DEInternal>
2.3055

> <Gold.Chemscore.Rot>
2.2645

> <Gold.Chemscore.Internal.Correction>
   9.000000E+99

> <Gold.Chemscore.Hbonds>
donor molecule, donor type, donor heavy atom, donor atom, acceptor molecule, acceptor atom, score
      P1  H  6896  6909       L1    10  0.77

> <Gold.Chemscore.Hbond.Weighted>
-3.2133

> <Gold.Chemscore.Metal.Weighted>
-0.0000

> <Gold.Chemscore.Lipo.Weighted>
-12.3752

> <Gold.Chemscore.Internal_Hbond.Weighted>
0.0000

> <Gold.Chemscore.DEClash.Weighted>
0.1548

> <Gold.Chemscore.DEInternal.Weighted>
2.3055

> <Gold.Chemscore.Rot.Weighted>
5.7972

> <Gold.Chemscore.Internal.Correction.Weighted>
   9.000000E+99

> <Gold.Protein.RotatedTorsions>
[ 6907 6896 6895 6894 ] final -166.72 input  -60.11 | X-H torsion
[ 7974 7965 7964 7962 ] final  -12.43 input  175.53 | X-H torsion
[ 8008 7997 7996 7995 ] final -168.49 input   59.86 | X-H torsion
[ 10167 10162 10161 10158 ] final   50.51 input  -65.29 | X-H torsion
[ 10718 10713 10712 10709 ] final  168.29 input   66.30 | X-H torsion
[ 10763 10752 10751 10750 ] final -166.45 input  -60.55 | X-H torsion
[ 11005 11000 10999 10996 ] final  -64.18 input  -57.11 | X-H torsion

> <Gold.Protein.ActiveResidues>
 VAL166  LYS551  ARG553  GLY616  TRP617  ASP618  TYR619  PRO620  LYS621  CYS622 
 ASP623  PHE694  ASN695  SER759  ASP760  ASP761  ALA762  ILE779  LEU786  VAL792 
 PHE793  MET794  SER795  GLU796  ALA797  LYS798  CYS799  TRP800  GLU811  SER814 

> <Gold.Protein.RotatedAtoms>
  151.4480  133.3625  159.2790 H   0  0  0  0  0  0  0  0  0  0  0  0  # atno 6907 bound_to 6896
  150.9110  134.8529  159.7436 H   0  0  0  0  0  0  0  0  0  0  0  0  # atno 6908 bound_to 6896
  152.4932  134.4410  159.9595 H   0  0  0  0  0  0  0  0  0  0  0  0  # atno 6909 bound_to 6896
  146.2152  140.3057  142.8378 H   0  0  0  0  0  0  0  0  0  0  0  0  # atno 7974 bound_to 7965
  155.8922  140.1026  157.1410 H   0  0  0  0  0  0  0  0  0  0  0  0  # atno 8008 bound_to 7997
  154.4016  140.1308  156.4394 H   0  0  0  0  0  0  0  0  0  0  0  0  # atno 8009 bound_to 7997
  155.7520  140.3465  155.5158 H   0  0  0  0  0  0  0  0  0  0  0  0  # atno 8010 bound_to 7997
  140.2717  144.3258  150.6288 H   0  0  0  0  0  0  0  0  0  0  0  0  # atno 10167 bound_to 10162
  157.0392  131.0282  151.2719 H   0  0  0  0  0  0  0  0  0  0  0  0  # atno 10718 bound_to 10713
  154.6832  135.2958  154.9584 H   0  0  0  0  0  0  0  0  0  0  0  0  # atno 10763 bound_to 10752
  154.0572  135.6636  153.4811 H   0  0  0  0  0  0  0  0  0  0  0  0  # atno 10764 bound_to 10752
  153.0561  135.5144  154.7885 H   0  0  0  0  0  0  0  0  0  0  0  0  # atno 10765 bound_to 10752
  141.1417  133.6662  156.5794 H   0  0  0  0  0  0  0  0  0  0  0  0  # atno 11005 bound_to 11000
  144.9025  140.7659  143.5858 LP  0  0  0  0  0  0  0  0  0  0  0  0  # atno 17320 bound_to 7965
  145.2984  139.1859  143.4703 LP  0  0  0  0  0  0  0  0  0  0  0  0  # atno 17321 bound_to 7965
  140.5884  143.2169  151.7298 LP  0  0  0  0  0  0  0  0  0  0  0  0  # atno 17342 bound_to 10162
  139.4987  144.3976  152.0215 LP  0  0  0  0  0  0  0  0  0  0  0  0  # atno 17343 bound_to 10162
  157.5117  130.7943  149.7712 LP  0  0  0  0  0  0  0  0  0  0  0  0  # atno 17370 bound_to 10713
  156.0043  130.3863  150.2487 LP  0  0  0  0  0  0  0  0  0  0  0  0  # atno 17371 bound_to 10713
  140.3850  134.7490  157.4685 LP  0  0  0  0  0  0  0  0  0  0  0  0  # atno 17394 bound_to 11000
  140.0609  134.5997  155.8750 LP  0  0  0  0  0  0  0  0  0  0  0  0  # atno 17395 bound_to 11000

$$$$
