AV-unprocessed.smi:189|AV-procd|sdf|1479|dock3
  -GOLD-   2262019303D 1   1.00000     0.00000
 Structure written by MMmdl.
 53 57  0  0  0  0  0  0  0  0  1 V2000
  150.8360  140.3311  155.4281 C   0  0  0  0  0  0  0  0  0  0  0  0
  150.6138  140.9683  156.8072 C   0  0  2  0  0  0  0  0  0  0  0  0
  150.4387  142.5058  156.7635 C   0  0  0  0  0  0  0  0  0  0  0  0
  151.5245  143.0194  157.7093 C   0  0  1  0  0  0  0  0  0  0  0  0
  151.2612  144.2911  158.5239 C   0  0  0  0  0  0  0  0  0  0  0  0
  152.4653  144.5498  159.4554 C   0  0  0  0  0  0  0  0  0  0  0  0
  152.8154  143.3208  160.3272 C   0  0  0  0  0  0  0  0  0  0  0  0
  152.9843  142.0326  159.4937 C   0  0  0  0  0  0  0  0  0  0  0  0
  151.7275  141.8309  158.6329 C   0  0  2  0  0  0  0  0  0  0  0  0
  151.7342  140.7061  157.7163 N   0  0  0  0  0  0  0  0  0  0  0  0
  151.7696  139.4880  158.3029 C   0  0  0  0  0  0  0  0  0  0  0  0
  150.6628  138.6991  158.3305 N   0  0  0  0  0  0  0  0  0  0  0  0
  150.7124  137.5022  158.9231 C   0  0  0  0  0  0  0  0  0  0  0  0
  151.7424  136.9166  159.5389 N   0  0  0  0  0  0  0  0  0  0  0  0
  152.8503  137.7125  159.5188 C   0  0  0  0  0  0  0  0  0  0  0  0
  152.9475  139.0019  158.9261 C   0  0  0  0  0  0  0  0  0  0  0  0
  154.2262  139.5144  159.0990 N   0  0  0  0  0  0  0  0  0  0  0  0
  154.8533  138.5773  159.7565 C   0  0  0  0  0  0  0  0  0  0  0  0
  154.1017  137.4623  160.0547 N   0  0  0  0  0  0  0  0  0  0  0  0
  154.5512  136.2799  160.7732 C   0  0  0  0  0  0  0  0  0  0  0  0
  154.8717  136.5505  162.2616 C   0  0  1  0  0  0  0  0  0  0  0  0
  155.9874  137.4210  162.3428 O   0  0  0  0  0  0  0  0  0  0  0  0
  153.7170  137.1653  163.0468 C   0  0  0  0  0  0  0  0  0  0  0  0
  153.9269  136.6092  164.4480 C   0  0  0  0  0  0  0  0  0  0  0  0
  154.3332  135.2753  164.1939 O   0  0  0  0  0  0  0  0  0  0  0  0
  155.1948  135.2716  163.0599 C   0  0  0  0  0  0  0  0  0  0  0  0
  149.9981  140.5397  154.7627 H   0  0  0  0  0  0  0  0  0  0  0  0
  150.9344  139.2480  155.5054 H   0  0  0  0  0  0  0  0  0  0  0  0
  151.7414  140.7155  154.9572 H   0  0  0  0  0  0  0  0  0  0  0  0
  149.6992  140.5468  157.2264 H   0  0  0  0  0  0  0  0  0  0  0  0
  150.5544  142.9211  155.7616 H   0  0  0  0  0  0  0  0  0  0  0  0
  149.4462  142.7782  157.1242 H   0  0  0  0  0  0  0  0  0  0  0  0
  152.4321  143.1658  157.1196 H   0  0  0  0  0  0  0  0  0  0  0  0
  151.1060  145.1423  157.8607 H   0  0  0  0  0  0  0  0  0  0  0  0
  150.3504  144.1782  159.1135 H   0  0  0  0  0  0  0  0  0  0  0  0
  153.3336  144.8157  158.8514 H   0  0  0  0  0  0  0  0  0  0  0  0
  152.2627  145.4111  160.0925 H   0  0  0  0  0  0  0  0  0  0  0  0
  153.7250  143.5163  160.8954 H   0  0  0  0  0  0  0  0  0  0  0  0
  152.0234  143.1685  161.0615 H   0  0  0  0  0  0  0  0  0  0  0  0
  153.8685  142.1086  158.8593 H   0  0  0  0  0  0  0  0  0  0  0  0
  153.1416  141.1789  160.1538 H   0  0  0  0  0  0  0  0  0  0  0  0
  150.8624  141.7336  159.2927 H   0  0  0  0  0  0  0  0  0  0  0  0
  149.7953  136.9321  158.9010 H   0  0  0  0  0  0  0  0  0  0  0  0
  155.8888  138.6756  160.0483 H   0  0  0  0  0  0  0  0  0  0  0  0
  153.7795  135.5138  160.6881 H   0  0  0  0  0  0  0  0  0  0  0  0
  155.4310  135.8846  160.2637 H   0  0  0  0  0  0  0  0  0  0  0  0
  156.2386  137.5014  163.2504 H   0  0  0  0  0  0  0  0  0  0  0  0
  153.6886  138.2553  163.0122 H   0  0  0  0  0  0  0  0  0  0  0  0
  152.7639  136.7960  162.6666 H   0  0  0  0  0  0  0  0  0  0  0  0
  154.7209  137.1454  164.9702 H   0  0  0  0  0  0  0  0  0  0  0  0
  153.0236  136.6457  165.0573 H   0  0  0  0  0  0  0  0  0  0  0  0
  155.0133  134.3654  162.4813 H   0  0  0  0  0  0  0  0  0  0  0  0
  156.2347  135.2436  163.3898 H   0  0  0  0  0  0  0  0  0  0  0  0
  1  2  1  0  0  0  0
  1 27  1  0  0  0  0
  1 28  1  0  0  0  0
  1 29  1  0  0  0  0
  2 10  1  0  0  0  0
  2  3  1  0  0  0  0
  2 30  1  0  0  0  0
  3  4  1  0  0  0  0
  3 31  1  0  0  0  0
  3 32  1  0  0  0  0
  4  9  1  0  0  0  0
  4  5  1  0  0  0  0
  4 33  1  0  0  0  0
  5  6  1  0  0  0  0
  5 34  1  0  0  0  0
  5 35  1  0  0  0  0
  6  7  1  0  0  0  0
  6 36  1  0  0  0  0
  6 37  1  0  0  0  0
  7  8  1  0  0  0  0
  7 38  1  0  0  0  0
  7 39  1  0  0  0  0
  8  9  1  0  0  0  0
  8 40  1  0  0  0  0
  8 41  1  0  0  0  0
  9 10  1  0  0  0  0
  9 42  1  0  0  0  0
 10 11  1  0  0  0  0
 11 16  1  0  0  0  0
 11 12  2  0  0  0  0
 12 13  1  0  0  0  0
 13 14  2  0  0  0  0
 13 43  1  0  0  0  0
 14 15  1  0  0  0  0
 15 19  1  0  0  0  0
 15 16  2  0  0  0  0
 16 17  1  0  0  0  0
 17 18  2  0  0  0  0
 18 19  1  0  0  0  0
 18 44  1  0  0  0  0
 19 20  1  0  0  0  0
 20 21  1  0  0  0  0
 20 45  1  0  0  0  0
 20 46  1  0  0  0  0
 21 26  1  0  0  0  0
 21 22  1  0  0  0  0
 21 23  1  0  0  0  0
 22 47  1  0  0  0  0
 23 24  1  0  0  0  0
 23 48  1  0  0  0  0
 23 49  1  0  0  0  0
 24 25  1  0  0  0  0
 24 50  1  0  0  0  0
 24 51  1  0  0  0  0
 25 26  1  0  0  0  0
 26 52  1  0  0  0  0
 26 53  1  0  0  0  0
M  END
> <s_m_source_file>
AV-unprocessed.smi

> <i_m_source_file_index>
189

> <i_lp_mmshare_version>
43012

> <i_f3d_flags>
0

> <s_epik_input>
W0NIMl0xW0NIMl1bQ0gyXVtDSDJdW0NASF0oW0NASF0xMilOKFtDQEhdKFtDSDNdKVtDSDJdMiljKG5bY0hdbjMpYyhjMzQpbltjSF1uNFtDSDJdW0NAQF01KFtPSF0pW0NIMl1bQ0gyXU9bQ0gyXTU=

> <s_epik_cmdline>
J2VwaWtfcHl0aG9uJywgJy1waCcsICc3LjAnLCAnLXRuJywgJzgnLCAnLW1hJywgJzIwMCcsICctbWV0YWxfYmluZGluZycsICctaW1hZScsICc8aW5maWxlLm1hZT4nLCAnLW9tYWUnLCAnPG91dGZpbGUubWFlPic=

> <r_lp_tautomer_probability>
1

> <r_epik_Ionization_Penalty>
0.00594261

> <r_epik_Ionization_Penalty_Charging>
0

> <r_epik_Ionization_Penalty_Neutral>
0.00594261

> <r_epik_State_Penalty>
0.00429776

> <r_epik_Charging_Adjusted_Penalty>
0.00429776

> <i_epik_Tot_Q>
0

> <i_epik_Tot_abs_Q>
0

> <r_epik_Metal_State_Penalty>
-0

> <b_epik_Metal_Only>
0

> <s_lp_Force_Field>
OPLS_2005

> <r_lp_Energy>
58.3288

> <b_lp_Chiralities_Consistent>
1

> <s_lp_Variant>
AV-unprocessed.smi:189-5

> <Gold.Version>
5.8.1

> <Gold.Id.Protein>
6NUR|6NUR_protein|mol2

> <Gold.PLP.Fitness>
53.3262

> <Gold.PLP.PLP>
-48.1538

> <Gold.PLP.part.hbond>
-2.0000

> <Gold.PLP.part.metal>
0.0000

> <Gold.PLP.part.buried>
-3.5412

> <Gold.PLP.part.nonpolar>
-42.9046

> <Gold.PLP.part.repulsive>
0.0782

> <Gold.PLP.ligand.clash>
0.0000

> <Gold.PLP.ligand.torsion>
0.4371

> <Gold.PLP.Chemscore.Hbond>
2.0000

> <Gold.PLP.Chemscore.CHOScore>
0.0000

> <Gold.PLP.Chemscore.Metal>
0.0000

> <Gold.Chemscore.Hbonds>
donor molecule, donor type, donor heavy atom, donor atom, acceptor molecule, acceptor atom, score
      P1  H  6896  6907       L1    14  1.00
      P1  H  7997  8008       L1    17  1.00

> <Gold.PLP.Chemscore.Internal.Correction>
0.0466

> <Gold.Rescore>
     Score         DG    S(hbond)    S(metal)    S(lipo)     H(rot)  DE(clash)    DE(int)     intcor
     19.68     -21.10       1.84        0.00     125.26       2.03       0.55       0.87       ----

> <Gold.Chemscore.Fitness>
19.6808

> <Gold.Chemscore.DG>
-21.0973

> <Gold.Chemscore.ZeroCoef>
-5.4800

> <Gold.Chemscore.Hbond>
1.8438

> <Gold.Chemscore.Metal>
0.0000

> <Gold.Chemscore.Lipo>
125.2567

> <Gold.Chemscore.Internal_Hbond>
0.0000

> <Gold.Chemscore.DEClash>
0.5491

> <Gold.Chemscore.DEInternal>
0.8674

> <Gold.Chemscore.Rot>
2.0297

> <Gold.Chemscore.Internal.Correction>
   9.000000E+99

> <Gold.Chemscore.Hbonds>
donor molecule, donor type, donor heavy atom, donor atom, acceptor molecule, acceptor atom, score
      P1  H  6896  6907       L1    14  0.97
      P1  H  7997  8008       L1    17  0.65

> <Gold.Chemscore.Hbond.Weighted>
-6.1582

> <Gold.Chemscore.Metal.Weighted>
-0.0000

> <Gold.Chemscore.Lipo.Weighted>
-14.6550

> <Gold.Chemscore.Internal_Hbond.Weighted>
0.0000

> <Gold.Chemscore.DEClash.Weighted>
0.5491

> <Gold.Chemscore.DEInternal.Weighted>
0.8674

> <Gold.Chemscore.Rot.Weighted>
5.1960

> <Gold.Chemscore.Internal.Correction.Weighted>
   9.000000E+99

> <Gold.Protein.RotatedTorsions>
[ 6907 6896 6895 6894 ] final    2.33 input  -60.11 | X-H torsion
[ 7974 7965 7964 7962 ] final   49.98 input  175.53 | X-H torsion
[ 8008 7997 7996 7995 ] final -114.67 input   59.86 | X-H torsion
[ 10167 10162 10161 10158 ] final   97.95 input  -65.29 | X-H torsion
[ 10718 10713 10712 10709 ] final -117.48 input   66.30 | X-H torsion
[ 10763 10752 10751 10750 ] final -172.72 input  -60.55 | X-H torsion
[ 11005 11000 10999 10996 ] final  -68.40 input  -57.11 | X-H torsion

> <Gold.Protein.ActiveResidues>
 VAL166  LYS551  ARG553  GLY616  TRP617  ASP618  TYR619  PRO620  LYS621  CYS622 
 ASP623  PHE694  ASN695  SER759  ASP760  ASP761  ALA762  ILE779  LEU786  VAL792 
 PHE793  MET794  SER795  GLU796  ALA797  LYS798  CYS799  TRP800  GLU811  SER814 

> <Gold.Protein.RotatedAtoms>
  151.6071  135.1043  160.0072 H   0  0  0  0  0  0  0  0  0  0  0  0  # atno 6907 bound_to 6896
  152.4228  133.7140  159.6506 H   0  0  0  0  0  0  0  0  0  0  0  0  # atno 6908 bound_to 6896
  150.8116  133.8339  159.3202 H   0  0  0  0  0  0  0  0  0  0  0  0  # atno 6909 bound_to 6896
  146.0056  139.4487  142.9988 H   0  0  0  0  0  0  0  0  0  0  0  0  # atno 7974 bound_to 7965
  155.0400  140.0392  157.2506 H   0  0  0  0  0  0  0  0  0  0  0  0  # atno 8008 bound_to 7997
  154.7225  140.2714  155.6505 H   0  0  0  0  0  0  0  0  0  0  0  0  # atno 8009 bound_to 7997
  156.2820  140.2700  156.1901 H   0  0  0  0  0  0  0  0  0  0  0  0  # atno 8010 bound_to 7997
  139.7753  144.6908  151.0098 H   0  0  0  0  0  0  0  0  0  0  0  0  # atno 10167 bound_to 10162
  156.1036  130.6192  150.9169 H   0  0  0  0  0  0  0  0  0  0  0  0  # atno 10718 bound_to 10713
  154.6160  135.2870  155.0379 H   0  0  0  0  0  0  0  0  0  0  0  0  # atno 10763 bound_to 10752
  154.1591  135.6491  153.4985 H   0  0  0  0  0  0  0  0  0  0  0  0  # atno 10764 bound_to 10752
  153.0215  135.5374  154.6932 H   0  0  0  0  0  0  0  0  0  0  0  0  # atno 10765 bound_to 10752
  141.1531  133.6740  156.6441 H   0  0  0  0  0  0  0  0  0  0  0  0  # atno 11005 bound_to 11000
  145.7421  141.0004  143.1295 LP  0  0  0  0  0  0  0  0  0  0  0  0  # atno 17320 bound_to 7965
  144.6934  139.9111  143.7463 LP  0  0  0  0  0  0  0  0  0  0  0  0  # atno 17321 bound_to 7965
  140.7816  143.4543  151.0368 LP  0  0  0  0  0  0  0  0  0  0  0  0  # atno 17342 bound_to 10162
  139.8225  143.7801  152.3177 LP  0  0  0  0  0  0  0  0  0  0  0  0  # atno 17343 bound_to 10162
  157.6210  131.0929  150.8622 LP  0  0  0  0  0  0  0  0  0  0  0  0  # atno 17370 bound_to 10713
  156.8745  130.5157  149.5294 LP  0  0  0  0  0  0  0  0  0  0  0  0  # atno 17371 bound_to 10713
  140.3371  134.7880  157.4370 LP  0  0  0  0  0  0  0  0  0  0  0  0  # atno 17394 bound_to 11000
  140.0969  134.5525  155.8390 LP  0  0  0  0  0  0  0  0  0  0  0  0  # atno 17395 bound_to 11000

$$$$
