AV-unprocessed.smi:2390|AV-procd|sdf|9478|dock10
  -GOLD-   2272013103D 1   1.00000     0.00000
 Structure written by MMmdl.
 46 47  0  0  0  0  0  0  0  0  2 V2000
  153.1353  141.0480  160.7524 C   0  0  0  0  0  0  0  0  0  0  0  0
  152.5877  142.2492  160.0107 C   0  0  0  0  0  0  0  0  0  0  0  0
  152.7760  143.5546  160.5057 C   0  0  0  0  0  0  0  0  0  0  0  0
  152.2461  144.6271  159.7664 C   0  0  0  0  0  0  0  0  0  0  0  0
  151.5563  144.3525  158.5699 C   0  0  0  0  0  0  0  0  0  0  0  0
  151.4102  143.0133  158.1438 C   0  0  0  0  0  0  0  0  0  0  0  0
  150.7078  142.8434  156.9213 N   0  0  0  0  0  0  0  0  0  0  0  0
  150.1105  141.7323  156.4565 C   0  0  0  0  0  0  0  0  0  0  0  0
  150.0155  140.6653  157.0642 O   0  0  0  0  0  0  0  0  0  0  0  0
  149.6133  141.9256  155.2256 N   0  0  0  0  0  0  0  0  0  0  0  0
  148.8960  140.9250  154.4354 C   0  0  1  0  0  0  0  0  0  0  0  0
  149.6689  139.5960  154.5056 C   0  0  0  0  0  0  0  0  0  0  0  0
  147.4000  140.7927  154.8702 C   0  0  2  0  0  0  0  0  0  0  0  0
  146.6711  139.6971  154.0507 C   0  0  0  0  0  0  0  0  0  0  0  0
  146.6758  142.1087  154.8456 N   0  3  0  0  0  0  0  0  0  0  0  0
  146.4767  142.6700  153.4793 C   0  0  0  0  0  0  0  0  0  0  0  0
  145.7392  144.0190  153.5236 C   0  0  0  0  0  0  0  0  0  0  0  0
  144.4969  143.8675  154.1913 O   0  0  0  0  0  0  0  0  0  0  0  0
  144.6844  143.4583  155.5363 C   0  0  0  0  0  0  0  0  0  0  0  0
  145.3730  142.0839  155.5686 C   0  0  0  0  0  0  0  0  0  0  0  0
  151.9248  141.9855  158.8639 N   0  0  0  0  0  0  0  0  0  0  0  0
  153.5237  141.3312  161.7311 H   0  0  0  0  0  0  0  0  0  0  0  0
  153.9449  140.5900  160.1833 H   0  0  0  0  0  0  0  0  0  0  0  0
  152.3539  140.3021  160.9011 H   0  0  0  0  0  0  0  0  0  0  0  0
  153.3123  143.7326  161.4261 H   0  0  0  0  0  0  0  0  0  0  0  0
  152.3673  145.6440  160.1096 H   0  0  0  0  0  0  0  0  0  0  0  0
  151.1448  145.1654  157.9892 H   0  0  0  0  0  0  0  0  0  0  0  0
  150.6709  143.6578  156.3267 H   0  0  0  0  0  0  0  0  0  0  0  0
  149.7353  142.8347  154.8032 H   0  0  0  0  0  0  0  0  0  0  0  0
  148.9535  141.2803  153.4073 H   0  0  0  0  0  0  0  0  0  0  0  0
  149.2107  138.8323  153.8772 H   0  0  0  0  0  0  0  0  0  0  0  0
  149.7137  139.2075  155.5233 H   0  0  0  0  0  0  0  0  0  0  0  0
  150.6952  139.7239  154.1591 H   0  0  0  0  0  0  0  0  0  0  0  0
  147.3854  140.4594  155.9090 H   0  0  0  0  0  0  0  0  0  0  0  0
  147.2433  138.7717  153.9977 H   0  0  0  0  0  0  0  0  0  0  0  0
  146.4788  140.0215  153.0278 H   0  0  0  0  0  0  0  0  0  0  0  0
  145.7185  139.4192  154.5015 H   0  0  0  0  0  0  0  0  0  0  0  0
  147.4314  142.8432  152.9851 H   0  0  0  0  0  0  0  0  0  0  0  0
  145.9175  141.9578  152.8705 H   0  0  0  0  0  0  0  0  0  0  0  0
  146.3453  144.7787  154.0201 H   0  0  0  0  0  0  0  0  0  0  0  0
  145.5518  144.3763  152.5110 H   0  0  0  0  0  0  0  0  0  0  0  0
  145.2698  144.2013  156.0808 H   0  0  0  0  0  0  0  0  0  0  0  0
  143.7117  143.4015  156.0251 H   0  0  0  0  0  0  0  0  0  0  0  0
  144.7215  141.3305  155.1230 H   0  0  0  0  0  0  0  0  0  0  0  0
  145.5059  141.8164  156.6146 H   0  0  0  0  0  0  0  0  0  0  0  0
  147.2648  142.7664  155.3361 H   0  0  0  0  0  0  0  0  0  0  0  0
  1  2  1  0  0  0  0
  1 22  1  0  0  0  0
  1 23  1  0  0  0  0
  1 24  1  0  0  0  0
  2 21  1  0  0  0  0
  2  3  2  0  0  0  0
  3  4  1  0  0  0  0
  3 25  1  0  0  0  0
  4  5  2  0  0  0  0
  4 26  1  0  0  0  0
  5  6  1  0  0  0  0
  5 27  1  0  0  0  0
  6  7  1  0  0  0  0
  6 21  2  0  0  0  0
  7  8  1  0  0  0  0
  7 28  1  0  0  0  0
  8  9  2  0  0  0  0
  8 10  1  0  0  0  0
 10 11  1  0  0  0  0
 10 29  1  0  0  0  0
 11 12  1  0  0  0  0
 11 13  1  0  0  0  0
 11 30  1  0  0  0  0
 12 31  1  0  0  0  0
 12 32  1  0  0  0  0
 12 33  1  0  0  0  0
 13 14  1  0  0  0  0
 13 15  1  0  0  0  0
 13 34  1  0  0  0  0
 14 35  1  0  0  0  0
 14 36  1  0  0  0  0
 14 37  1  0  0  0  0
 15 20  1  0  0  0  0
 15 16  1  0  0  0  0
 15 46  1  0  0  0  0
 16 17  1  0  0  0  0
 16 38  1  0  0  0  0
 16 39  1  0  0  0  0
 17 18  1  0  0  0  0
 17 40  1  0  0  0  0
 17 41  1  0  0  0  0
 18 19  1  0  0  0  0
 19 20  1  0  0  0  0
 19 42  1  0  0  0  0
 19 43  1  0  0  0  0
 20 44  1  0  0  0  0
 20 45  1  0  0  0  0
M  CHG  1  15   1
M  END
> <s_m_source_file>
AV-unprocessed.smi

> <i_m_source_file_index>
2390

> <i_lp_mmshare_version>
43012

> <i_f3d_flags>
0

> <s_epik_input>
W0NIM11jMVtjSF1bY0hdW2NIXWMobjEpW05IXUMoPU8pW05IXVtDQEhdKFtDSDNdKVtDQEhdKFtDSDNdKU4yW0NIMl1bQ0gyXU9bQ0gyXVtDSDJdMg==

> <s_epik_cmdline>
J2VwaWtfcHl0aG9uJywgJy1waCcsICc3LjAnLCAnLXRuJywgJzgnLCAnLW1hJywgJzIwMCcsICctbWV0YWxfYmluZGluZycsICctaW1hZScsICc8aW5maWxlLm1hZT4nLCAnLW9tYWUnLCAnPG91dGZpbGUubWFlPic=

> <r_epik_Ionization_Penalty>
0.60259

> <r_epik_Ionization_Penalty_Charging>
0.602531

> <r_epik_Ionization_Penalty_Neutral>
5.9516e-05

> <r_epik_State_Penalty>
0.617039

> <r_epik_Charging_Adjusted_Penalty>
1.21957

> <i_epik_Tot_Q>
1

> <i_epik_Tot_abs_Q>
1

> <r_epik_Metal_State_Penalty>
0.617047

> <b_epik_Metal_Only>
0

> <s_lp_Force_Field>
OPLS_2005

> <r_lp_Energy>
24.4942

> <b_lp_Chiralities_Consistent>
1

> <s_lp_Variant>
AV-unprocessed.smi:2390-6

> <Gold.Version>
5.8.1

> <Gold.Id.Protein>
6NUR|6NUR_protein|mol2

> <Gold.PLP.Fitness>
47.0698

> <Gold.PLP.PLP>
-43.3218

> <Gold.PLP.part.hbond>
-2.0000

> <Gold.PLP.part.metal>
0.0000

> <Gold.PLP.part.buried>
-6.8171

> <Gold.PLP.part.nonpolar>
-35.6183

> <Gold.PLP.part.repulsive>
0.4433

> <Gold.PLP.ligand.clash>
0.0000

> <Gold.PLP.ligand.torsion>
0.4140

> <Gold.PLP.Chemscore.Hbond>
1.4880

> <Gold.PLP.Chemscore.CHOScore>
0.0000

> <Gold.PLP.Chemscore.Metal>
0.0000

> <Gold.Chemscore.Hbonds>
donor molecule, donor type, donor heavy atom, donor atom, acceptor molecule, acceptor atom, score
      L1  H     7    28       P1  8028  0.36
      L1  H    10    29       P1  8028  0.26

> <Gold.PLP.Chemscore.Internal.Correction>
0.1121

> <Gold.Rescore>
     Score         DG    S(hbond)    S(metal)    S(lipo)     H(rot)  DE(clash)    DE(int)     intcor
     15.62     -18.56       1.68        0.00      96.41       1.48       0.01       2.92       ----

> <Gold.Chemscore.Fitness>
15.6242

> <Gold.Chemscore.DG>
-18.5576

> <Gold.Chemscore.ZeroCoef>
-5.4800

> <Gold.Chemscore.Hbond>
1.6760

> <Gold.Chemscore.Metal>
0.0000

> <Gold.Chemscore.Lipo>
96.4091

> <Gold.Chemscore.Internal_Hbond>
0.0000

> <Gold.Chemscore.DEClash>
0.0144

> <Gold.Chemscore.DEInternal>
2.9189

> <Gold.Chemscore.Rot>
1.4844

> <Gold.Chemscore.Internal.Correction>
   9.000000E+99

> <Gold.Chemscore.Hbonds>
donor molecule, donor type, donor heavy atom, donor atom, acceptor molecule, acceptor atom, score
      L1  H     7    28       P1  8028  0.36
      L1  H    10    29       P1  8028  0.25

> <Gold.Chemscore.Hbond.Weighted>
-5.5977

> <Gold.Chemscore.Metal.Weighted>
-0.0000

> <Gold.Chemscore.Lipo.Weighted>
-11.2799

> <Gold.Chemscore.Internal_Hbond.Weighted>
0.0000

> <Gold.Chemscore.DEClash.Weighted>
0.0144

> <Gold.Chemscore.DEInternal.Weighted>
2.9189

> <Gold.Chemscore.Rot.Weighted>
3.8000

> <Gold.Chemscore.Internal.Correction.Weighted>
   9.000000E+99

> <Gold.Protein.RotatedTorsions>
[ 6907 6896 6895 6894 ] final -178.68 input  -60.11 | X-H torsion
[ 7974 7965 7964 7962 ] final   87.93 input  175.53 | X-H torsion
[ 8008 7997 7996 7995 ] final  114.57 input   59.86 | X-H torsion
[ 10167 10162 10161 10158 ] final   84.71 input  -65.29 | X-H torsion
[ 10718 10713 10712 10709 ] final  121.41 input   66.30 | X-H torsion
[ 10763 10752 10751 10750 ] final  -68.26 input  -60.55 | X-H torsion
[ 11005 11000 10999 10996 ] final   45.08 input  -57.11 | X-H torsion

> <Gold.Protein.ActiveResidues>
 VAL166  LYS551  ARG553  GLY616  TRP617  ASP618  TYR619  PRO620  LYS621  CYS622 
 ASP623  PHE694  ASN695  SER759  ASP760  ASP761  ALA762  ILE779  LEU786  VAL792 
 PHE793  MET794  SER795  GLU796  ALA797  LYS798  CYS799  TRP800  GLU811  SER814 

> <Gold.Protein.RotatedAtoms>
  151.6411  133.3326  159.3130 H   0  0  0  0  0  0  0  0  0  0  0  0  # atno 6907 bound_to 6896
  150.8007  134.7103  159.6609 H   0  0  0  0  0  0  0  0  0  0  0  0  # atno 6908 bound_to 6896
  152.4099  134.6146  160.0086 H   0  0  0  0  0  0  0  0  0  0  0  0  # atno 6909 bound_to 6896
  145.5525  139.2296  143.2505 H   0  0  0  0  0  0  0  0  0  0  0  0  # atno 7974 bound_to 7965
  156.2329  140.2956  156.0235 H   0  0  0  0  0  0  0  0  0  0  0  0  # atno 8008 bound_to 7997
  155.2175  140.0414  157.2960 H   0  0  0  0  0  0  0  0  0  0  0  0  # atno 8009 bound_to 7997
  154.6027  140.2431  155.7779 H   0  0  0  0  0  0  0  0  0  0  0  0  # atno 8010 bound_to 7997
  139.9052  144.6305  150.8594 H   0  0  0  0  0  0  0  0  0  0  0  0  # atno 10167 bound_to 10162
  157.5819  131.1074  150.8170 H   0  0  0  0  0  0  0  0  0  0  0  0  # atno 10718 bound_to 10713
  154.3865  135.6062  153.5819 H   0  0  0  0  0  0  0  0  0  0  0  0  # atno 10763 bound_to 10752
  152.9787  135.5873  154.4349 H   0  0  0  0  0  0  0  0  0  0  0  0  # atno 10764 bound_to 10752
  154.4126  135.2844  155.2005 H   0  0  0  0  0  0  0  0  0  0  0  0  # atno 10765 bound_to 10752
  140.1493  134.4482  155.8393 H   0  0  0  0  0  0  0  0  0  0  0  0  # atno 11005 bound_to 11000
  146.1907  140.6348  142.9147 LP  0  0  0  0  0  0  0  0  0  0  0  0  # atno 17320 bound_to 7965
  144.7522  140.5220  143.6793 LP  0  0  0  0  0  0  0  0  0  0  0  0  # atno 17321 bound_to 7965
  140.7698  143.3406  151.2215 LP  0  0  0  0  0  0  0  0  0  0  0  0  # atno 17342 bound_to 10162
  139.6990  143.9565  152.2896 LP  0  0  0  0  0  0  0  0  0  0  0  0  # atno 17343 bound_to 10162
  156.8614  130.5114  149.5303 LP  0  0  0  0  0  0  0  0  0  0  0  0  # atno 17370 bound_to 10713
  156.0866  130.5863  150.9658 LP  0  0  0  0  0  0  0  0  0  0  0  0  # atno 17371 bound_to 10713
  141.2197  133.6865  156.7391 LP  0  0  0  0  0  0  0  0  0  0  0  0  # atno 17394 bound_to 11000
  140.2625  134.8456  157.3772 LP  0  0  0  0  0  0  0  0  0  0  0  0  # atno 17395 bound_to 11000

$$$$
