AV-unprocessed.smi:219|AV-procd|sdf|1680|dock6
  -GOLD-   2262020113D 1   1.00000     0.00000
 Structure written by MMmdl.
 50 53  0  0  0  0  0  0  0  0  1 V2000
  154.8172  137.1674  160.5534 N   0  0  0  0  0  0  0  0  0  0  0  0
  154.4226  137.9973  159.5846 C   0  0  0  0  0  0  0  0  0  0  0  0
  155.0931  138.1862  158.5721 O   0  0  0  0  0  0  0  0  0  0  0  0
  153.0830  138.7178  159.7880 C   0  0  0  0  0  0  0  0  0  0  0  0
  153.1457  140.2733  159.7463 C   0  0  2  0  0  0  0  0  0  0  0  0
  153.5786  140.7929  161.1368 C   0  0  0  0  0  0  0  0  0  0  0  0
  153.6440  142.3253  161.1884 C   0  0  0  0  0  0  0  0  0  0  0  0
  152.2998  142.9194  160.7557 C   0  0  0  0  0  0  0  0  0  0  0  0
  151.9105  142.3936  159.3682 C   0  0  0  0  0  0  0  0  0  0  0  0
  151.8863  140.9294  159.3421 N   0  0  0  0  0  0  0  0  0  0  0  0
  151.2945  140.4639  158.2187 C   0  0  0  0  0  0  0  0  0  0  0  0
  151.3975  141.1599  157.0555 N   0  0  0  0  0  0  0  0  0  0  0  0
  150.8325  140.6825  155.9423 C   0  0  0  0  0  0  0  0  0  0  0  0
  150.1327  139.5575  155.7769 N   0  0  0  0  0  0  0  0  0  0  0  0
  150.0246  138.8629  156.9461 C   0  0  0  0  0  0  0  0  0  0  0  0
  150.5725  139.2424  158.2025 C   0  0  0  0  0  0  0  0  0  0  0  0
  150.2753  138.2860  159.1640 N   0  0  0  0  0  0  0  0  0  0  0  0
  149.5845  137.3905  158.5126 C   0  0  0  0  0  0  0  0  0  0  0  0
  149.3773  137.6614  157.1781 N   0  0  0  0  0  0  0  0  0  0  0  0
  148.6452  136.8393  156.2262 C   0  0  0  0  0  0  0  0  0  0  0  0
  149.5388  135.8370  155.4558 C   0  0  2  0  0  0  0  0  0  0  0  0
  150.2617  136.5398  154.4608 O   0  0  0  0  0  0  0  0  0  0  0  0
  148.7277  134.7246  154.7875 C   0  0  0  0  0  0  0  0  0  0  0  0
  149.0648  133.4886  155.6129 C   0  0  0  0  0  0  0  0  0  0  0  0
  150.4188  133.7104  155.9637 O   0  0  0  0  0  0  0  0  0  0  0  0
  150.5289  135.0707  156.3563 C   0  0  0  0  0  0  0  0  0  0  0  0
  155.6917  136.6710  160.4609 H   0  0  0  0  0  0  0  0  0  0  0  0
  154.2417  137.0375  161.3726 H   0  0  0  0  0  0  0  0  0  0  0  0
  152.3387  138.3530  159.0784 H   0  0  0  0  0  0  0  0  0  0  0  0
  152.7336  138.3979  160.7703 H   0  0  0  0  0  0  0  0  0  0  0  0
  153.9124  140.5787  159.0323 H   0  0  0  0  0  0  0  0  0  0  0  0
  152.8774  140.4379  161.8937 H   0  0  0  0  0  0  0  0  0  0  0  0
  154.5534  140.3836  161.4044 H   0  0  0  0  0  0  0  0  0  0  0  0
  153.8968  142.6584  162.1953 H   0  0  0  0  0  0  0  0  0  0  0  0
  154.4364  142.6836  160.5301 H   0  0  0  0  0  0  0  0  0  0  0  0
  151.5277  142.6549  161.4795 H   0  0  0  0  0  0  0  0  0  0  0  0
  152.3564  144.0080  160.7418 H   0  0  0  0  0  0  0  0  0  0  0  0
  150.9308  142.7864  159.0916 H   0  0  0  0  0  0  0  0  0  0  0  0
  152.6223  142.7606  158.6270 H   0  0  0  0  0  0  0  0  0  0  0  0
  150.9617  141.2880  155.0573 H   0  0  0  0  0  0  0  0  0  0  0  0
  149.1996  136.5023  158.9926 H   0  0  0  0  0  0  0  0  0  0  0  0
  147.8641  136.3028  156.7666 H   0  0  0  0  0  0  0  0  0  0  0  0
  148.1314  137.5023  155.5285 H   0  0  0  0  0  0  0  0  0  0  0  0
  149.7199  136.6051  153.6892 H   0  0  0  0  0  0  0  0  0  0  0  0
  147.6558  134.9240  154.7594 H   0  0  0  0  0  0  0  0  0  0  0  0
  149.0559  134.5630  153.7593 H   0  0  0  0  0  0  0  0  0  0  0  0
  148.4527  133.4391  156.5149 H   0  0  0  0  0  0  0  0  0  0  0  0
  148.9379  132.5606  155.0552 H   0  0  0  0  0  0  0  0  0  0  0  0
  151.5570  135.4274  156.2810 H   0  0  0  0  0  0  0  0  0  0  0  0
  150.2360  135.1314  157.4046 H   0  0  0  0  0  0  0  0  0  0  0  0
  1  2  1  0  0  0  0
  1 27  1  0  0  0  0
  1 28  1  0  0  0  0
  2  3  2  0  0  0  0
  2  4  1  0  0  0  0
  4  5  1  0  0  0  0
  4 29  1  0  0  0  0
  4 30  1  0  0  0  0
  5 10  1  0  0  0  0
  5  6  1  0  0  0  0
  5 31  1  0  0  0  0
  6  7  1  0  0  0  0
  6 32  1  0  0  0  0
  6 33  1  0  0  0  0
  7  8  1  0  0  0  0
  7 34  1  0  0  0  0
  7 35  1  0  0  0  0
  8  9  1  0  0  0  0
  8 36  1  0  0  0  0
  8 37  1  0  0  0  0
  9 10  1  0  0  0  0
  9 38  1  0  0  0  0
  9 39  1  0  0  0  0
 10 11  1  0  0  0  0
 11 16  1  0  0  0  0
 11 12  2  0  0  0  0
 12 13  1  0  0  0  0
 13 14  2  0  0  0  0
 13 40  1  0  0  0  0
 14 15  1  0  0  0  0
 15 19  1  0  0  0  0
 15 16  2  0  0  0  0
 16 17  1  0  0  0  0
 17 18  2  0  0  0  0
 18 19  1  0  0  0  0
 18 41  1  0  0  0  0
 19 20  1  0  0  0  0
 20 21  1  0  0  0  0
 20 42  1  0  0  0  0
 20 43  1  0  0  0  0
 21 26  1  0  0  0  0
 21 22  1  0  0  0  0
 21 23  1  0  0  0  0
 22 44  1  0  0  0  0
 23 24  1  0  0  0  0
 23 45  1  0  0  0  0
 23 46  1  0  0  0  0
 24 25  1  0  0  0  0
 24 47  1  0  0  0  0
 24 48  1  0  0  0  0
 25 26  1  0  0  0  0
 26 49  1  0  0  0  0
 26 50  1  0  0  0  0
M  END
> <s_m_source_file>
AV-unprocessed.smi

> <i_m_source_file_index>
219

> <i_lp_mmshare_version>
43012

> <i_f3d_flags>
0

> <s_epik_input>
W05IMl1DKD1PKVtDSDJdW0NAQEhdMVtDSDJdW0NIMl1bQ0gyXVtDSDJdTjFjKG5bY0hdbjIpYyhjMjMpbltjSF1uM1tDSDJdW0NAQF00KFtPSF0pW0NIMl1bQ0gyXU9bQ0gyXTQ=

> <s_epik_cmdline>
J2VwaWtfcHl0aG9uJywgJy1waCcsICc3LjAnLCAnLXRuJywgJzgnLCAnLW1hJywgJzIwMCcsICctbWV0YWxfYmluZGluZycsICctaW1hZScsICc8aW5maWxlLm1hZT4nLCAnLW9tYWUnLCAnPG91dGZpbGUubWFlPic=

> <r_lp_tautomer_probability>
1

> <r_epik_Ionization_Penalty>
0.00228532

> <r_epik_Ionization_Penalty_Charging>
0

> <r_epik_Ionization_Penalty_Neutral>
0.00228532

> <r_epik_State_Penalty>
0.00140978

> <r_epik_Charging_Adjusted_Penalty>
0.00140978

> <i_epik_Tot_Q>
0

> <i_epik_Tot_abs_Q>
0

> <r_epik_Metal_State_Penalty>
-0

> <b_epik_Metal_Only>
0

> <s_lp_Force_Field>
OPLS_2005

> <r_lp_Energy>
33.6932

> <b_lp_Chiralities_Consistent>
1

> <s_lp_Variant>
AV-unprocessed.smi:219-3

> <Gold.Version>
5.8.1

> <Gold.Id.Protein>
6NUR|6NUR_protein|mol2

> <Gold.PLP.Fitness>
38.5566

> <Gold.PLP.PLP>
-35.1108

> <Gold.PLP.part.hbond>
-3.4937

> <Gold.PLP.part.metal>
0.0000

> <Gold.PLP.part.buried>
-6.2082

> <Gold.PLP.part.nonpolar>
-25.6218

> <Gold.PLP.part.repulsive>
0.0427

> <Gold.PLP.ligand.clash>
0.0000

> <Gold.PLP.ligand.torsion>
1.4153

> <Gold.PLP.Chemscore.Hbond>
2.0000

> <Gold.PLP.Chemscore.CHOScore>
0.0000

> <Gold.PLP.Chemscore.Metal>
0.0000

> <Gold.Chemscore.Hbonds>
donor molecule, donor type, donor heavy atom, donor atom, acceptor molecule, acceptor atom, score
      L1  H    22    44       P1  7948  1.00
      P1  H  7997  8010       L1     3  0.62

> <Gold.PLP.Chemscore.Internal.Correction>
0.2765

> <Gold.Rescore>
     Score         DG    S(hbond)    S(metal)    S(lipo)     H(rot)  DE(clash)    DE(int)     intcor
      9.90     -11.43       1.74        0.00      74.96       3.37       0.01       1.52       ----

> <Gold.Chemscore.Fitness>
9.9027

> <Gold.Chemscore.DG>
-11.4323

> <Gold.Chemscore.ZeroCoef>
-5.4800

> <Gold.Chemscore.Hbond>
1.7389

> <Gold.Chemscore.Metal>
0.0000

> <Gold.Chemscore.Lipo>
74.9649

> <Gold.Chemscore.Internal_Hbond>
0.0000

> <Gold.Chemscore.DEClash>
0.0089

> <Gold.Chemscore.DEInternal>
1.5208

> <Gold.Chemscore.Rot>
3.3697

> <Gold.Chemscore.Internal.Correction>
   9.000000E+99

> <Gold.Chemscore.Hbonds>
donor molecule, donor type, donor heavy atom, donor atom, acceptor molecule, acceptor atom, score
      L1  H    22    44       P1  7948  0.54
      P1  H  7997  8010       L1     3  0.59

> <Gold.Chemscore.Hbond.Weighted>
-5.8079

> <Gold.Chemscore.Metal.Weighted>
-0.0000

> <Gold.Chemscore.Lipo.Weighted>
-8.7709

> <Gold.Chemscore.Internal_Hbond.Weighted>
0.0000

> <Gold.Chemscore.DEClash.Weighted>
0.0089

> <Gold.Chemscore.DEInternal.Weighted>
1.5208

> <Gold.Chemscore.Rot.Weighted>
8.6264

> <Gold.Chemscore.Internal.Correction.Weighted>
   9.000000E+99

> <Gold.Protein.RotatedTorsions>
[ 6907 6896 6895 6894 ] final  155.68 input  -60.11 | X-H torsion
[ 7974 7965 7964 7962 ] final   54.76 input  175.53 | X-H torsion
[ 8008 7997 7996 7995 ] final   -7.76 input   59.86 | X-H torsion
[ 10167 10162 10161 10158 ] final -172.38 input  -65.29 | X-H torsion
[ 10718 10713 10712 10709 ] final   73.27 input   66.30 | X-H torsion
[ 10763 10752 10751 10750 ] final  116.17 input  -60.55 | X-H torsion
[ 11005 11000 10999 10996 ] final -112.68 input  -57.11 | X-H torsion

> <Gold.Protein.ActiveResidues>
 VAL166  LYS551  ARG553  GLY616  TRP617  ASP618  TYR619  PRO620  LYS621  CYS622 
 ASP623  PHE694  ASN695  SER759  ASP760  ASP761  ALA762  ILE779  LEU786  VAL792 
 PHE793  MET794  SER795  GLU796  ALA797  LYS798  CYS799  TRP800  GLU811  SER814 

> <Gold.Protein.RotatedAtoms>
  152.0407  133.3976  159.4335 H   0  0  0  0  0  0  0  0  0  0  0  0  # atno 6907 bound_to 6896
  150.6876  134.3418  159.4880 H   0  0  0  0  0  0  0  0  0  0  0  0  # atno 6908 bound_to 6896
  152.1216  134.9201  160.0613 H   0  0  0  0  0  0  0  0  0  0  0  0  # atno 6909 bound_to 6896
  145.9575  139.4028  143.0268 H   0  0  0  0  0  0  0  0  0  0  0  0  # atno 7974 bound_to 7965
  154.5807  140.2398  155.8058 H   0  0  0  0  0  0  0  0  0  0  0  0  # atno 8008 bound_to 7997
  156.2177  140.3007  155.9834 H   0  0  0  0  0  0  0  0  0  0  0  0  # atno 8009 bound_to 7997
  155.2546  140.0412  157.2981 H   0  0  0  0  0  0  0  0  0  0  0  0  # atno 8010 bound_to 7997
  139.5748  144.1559  152.1434 H   0  0  0  0  0  0  0  0  0  0  0  0  # atno 10167 bound_to 10162
  157.6540  130.9620  150.1045 H   0  0  0  0  0  0  0  0  0  0  0  0  # atno 10718 bound_to 10713
  153.5332  135.3574  155.2685 H   0  0  0  0  0  0  0  0  0  0  0  0  # atno 10763 bound_to 10752
  154.8725  135.4073  154.3127 H   0  0  0  0  0  0  0  0  0  0  0  0  # atno 10764 bound_to 10752
  153.3820  135.7068  153.6626 H   0  0  0  0  0  0  0  0  0  0  0  0  # atno 10765 bound_to 10752
  141.0660  133.9458  157.2577 H   0  0  0  0  0  0  0  0  0  0  0  0  # atno 11005 bound_to 11000
  145.8086  140.9737  143.0961 LP  0  0  0  0  0  0  0  0  0  0  0  0  # atno 17320 bound_to 7965
  144.6808  139.9892  143.7484 LP  0  0  0  0  0  0  0  0  0  0  0  0  # atno 17321 bound_to 7965
  140.1099  144.5466  150.6932 LP  0  0  0  0  0  0  0  0  0  0  0  0  # atno 17342 bound_to 10162
  140.7031  143.2448  151.4807 LP  0  0  0  0  0  0  0  0  0  0  0  0  # atno 17343 bound_to 10162
  156.1958  130.3657  149.8850 LP  0  0  0  0  0  0  0  0  0  0  0  0  # atno 17370 bound_to 10713
  156.6767  130.8842  151.3570 LP  0  0  0  0  0  0  0  0  0  0  0  0  # atno 17371 bound_to 10713
  139.9477  135.0181  156.8901 LP  0  0  0  0  0  0  0  0  0  0  0  0  # atno 17394 bound_to 11000
  140.5772  134.0387  155.7451 LP  0  0  0  0  0  0  0  0  0  0  0  0  # atno 17395 bound_to 11000

$$$$
