AV-unprocessed.smi:196|AV-procd|sdf|1528|dock8
  -GOLD-   2262019373D 1   1.00000     0.00000
 Structure written by MMmdl.
 47 50  0  0  0  0  0  0  0  0  1 V2000
  152.1506  139.8254  156.2838 C   0  0  0  0  0  0  0  0  0  0  0  0
  151.6197  139.1087  155.0325 C   0  0  2  0  0  0  0  0  0  0  0  0
  150.3178  139.6174  154.7561 O   0  0  0  0  0  0  0  0  0  0  0  0
  149.5689  138.6110  154.0991 C   0  0  0  0  0  0  0  0  0  0  0  0
  149.9641  137.3601  154.8681 C   0  0  0  0  0  0  0  0  0  0  0  0
  151.4566  137.5644  155.1204 C   0  0  1  0  0  0  0  0  0  0  0  0
  152.1585  136.9930  154.0291 O   0  0  0  0  0  0  0  0  0  0  0  0
  151.9584  136.8919  156.4255 C   0  0  0  0  0  0  0  0  0  0  0  0
  150.9513  136.8434  157.4742 N   0  0  0  0  0  0  0  0  0  0  0  0
  150.9046  137.6183  158.6103 C   0  0  0  0  0  0  0  0  0  0  0  0
  149.8891  137.3903  159.3969 N   0  0  0  0  0  0  0  0  0  0  0  0
  149.1862  136.3707  158.7640 C   0  0  0  0  0  0  0  0  0  0  0  0
  147.9912  135.6519  159.0598 C   0  0  0  0  0  0  0  0  0  0  0  0
  147.2396  135.8727  160.1718 N   0  0  0  0  0  0  0  0  0  0  0  0
  147.8966  136.2375  161.4215 C   0  0  0  0  0  0  0  0  0  0  0  0
  147.0532  135.6071  162.5295 C   0  0  2  0  0  0  0  0  0  0  0  0
  147.5207  134.3883  162.8047 F   0  0  0  0  0  0  0  0  0  0  0  0
  145.6708  135.4900  161.8951 C   0  0  0  0  0  0  0  0  0  0  0  0
  145.9683  135.1842  160.4178 C   0  0  1  0  0  0  0  0  0  0  0  0
  144.8360  135.6840  159.5063 C   0  0  0  0  0  0  0  0  0  0  0  0
  144.2183  134.7680  158.7571 N   0  0  0  0  0  0  0  0  0  0  0  0
  144.5139  136.8710  159.4866 O   0  0  0  0  0  0  0  0  0  0  0  0
  147.5975  134.7077  158.1639 N   0  0  0  0  0  0  0  0  0  0  0  0
  148.3180  134.4718  157.0642 C   0  0  0  0  0  0  0  0  0  0  0  0
  149.4473  135.0588  156.6656 N   0  0  0  0  0  0  0  0  0  0  0  0
  149.8451  136.0153  157.5522 C   0  0  0  0  0  0  0  0  0  0  0  0
  147.0601  136.1802  163.4570 H   0  0  0  0  0  0  0  0  0  0  0  0
  146.1104  134.1088  160.2949 H   0  0  0  0  0  0  0  0  0  0  0  0
  153.1545  139.4881  156.5416 H   0  0  0  0  0  0  0  0  0  0  0  0
  151.5026  139.6625  157.1451 H   0  0  0  0  0  0  0  0  0  0  0  0
  152.2031  140.9012  156.1154 H   0  0  0  0  0  0  0  0  0  0  0  0
  152.2585  139.3751  154.1881 H   0  0  0  0  0  0  0  0  0  0  0  0
  148.4984  138.8125  154.1403 H   0  0  0  0  0  0  0  0  0  0  0  0
  149.8720  138.5442  153.0531 H   0  0  0  0  0  0  0  0  0  0  0  0
  149.4213  137.3480  155.8140 H   0  0  0  0  0  0  0  0  0  0  0  0
  149.7269  136.4366  154.3379 H   0  0  0  0  0  0  0  0  0  0  0  0
  151.5388  136.7946  153.3437 H   0  0  0  0  0  0  0  0  0  0  0  0
  152.2913  135.8727  156.2266 H   0  0  0  0  0  0  0  0  0  0  0  0
  152.8212  137.4269  156.8233 H   0  0  0  0  0  0  0  0  0  0  0  0
  151.6481  138.3685  158.8363 H   0  0  0  0  0  0  0  0  0  0  0  0
  148.9332  135.9006  161.4734 H   0  0  0  0  0  0  0  0  0  0  0  0
  147.8879  137.3246  161.5086 H   0  0  0  0  0  0  0  0  0  0  0  0
  145.0562  134.7231  162.3679 H   0  0  0  0  0  0  0  0  0  0  0  0
  145.1488  136.4431  161.9997 H   0  0  0  0  0  0  0  0  0  0  0  0
  143.4623  135.0418  158.1467 H   0  0  0  0  0  0  0  0  0  0  0  0
  144.5060  133.8017  158.8107 H   0  0  0  0  0  0  0  0  0  0  0  0
  147.9341  133.7025  156.4107 H   0  0  0  0  0  0  0  0  0  0  0  0
  1  2  1  0  0  0  0
  1 29  1  0  0  0  0
  1 30  1  0  0  0  0
  1 31  1  0  0  0  0
  2  6  1  0  0  0  0
  2  3  1  0  0  0  0
  2 32  1  0  0  0  0
  3  4  1  0  0  0  0
  4  5  1  0  0  0  0
  4 33  1  0  0  0  0
  4 34  1  0  0  0  0
  5  6  1  0  0  0  0
  5 35  1  0  0  0  0
  5 36  1  0  0  0  0
  6  7  1  0  0  0  0
  6  8  1  0  0  0  0
  7 37  1  0  0  0  0
  8  9  1  0  0  0  0
  8 38  1  0  0  0  0
  8 39  1  0  0  0  0
  9 26  1  0  0  0  0
  9 10  1  0  0  0  0
 10 11  2  0  0  0  0
 10 40  1  0  0  0  0
 11 12  1  0  0  0  0
 12 26  2  0  0  0  0
 12 13  1  0  0  0  0
 13 14  1  0  0  0  0
 13 23  2  0  0  0  0
 14 19  1  0  0  0  0
 14 15  1  0  0  0  0
 15 16  1  0  0  0  0
 15 41  1  0  0  0  0
 15 42  1  0  0  0  0
 16 27  1  0  0  0  0
 16 17  1  0  0  0  0
 16 18  1  0  0  0  0
 18 19  1  0  0  0  0
 18 43  1  0  0  0  0
 18 44  1  0  0  0  0
 19 28  1  0  0  0  0
 19 20  1  0  0  0  0
 20 21  1  0  0  0  0
 20 22  2  0  0  0  0
 21 45  1  0  0  0  0
 21 46  1  0  0  0  0
 23 24  1  0  0  0  0
 24 25  2  0  0  0  0
 24 47  1  0  0  0  0
 25 26  1  0  0  0  0
M  END
> <s_m_source_file>
AV-unprocessed.smi

> <i_m_source_file_index>
196

> <i_lp_mmshare_version>
43012

> <i_f3d_flags>
0

> <s_epik_input>
W0NIMl0xW0NIMl1PW0NAQEhdKFtDSDNdKVtDQEBdMShbT0hdKVtDSDJdbihbY0hdbjIpYyhjMjMpbltjSF1uYzNONFtDSDJdW0NASF0oRilbQ0gyXVtDQEhdNEMoPU8pW05IMl0=

> <s_epik_cmdline>
J2VwaWtfcHl0aG9uJywgJy1waCcsICc3LjAnLCAnLXRuJywgJzgnLCAnLW1hJywgJzIwMCcsICctbWV0YWxfYmluZGluZycsICctaW1hZScsICc8aW5maWxlLm1hZT4nLCAnLW9tYWUnLCAnPG91dGZpbGUubWFlPic=

> <r_lp_tautomer_probability>
1

> <r_epik_Ionization_Penalty>
0.000857933

> <r_epik_Ionization_Penalty_Charging>
0

> <r_epik_Ionization_Penalty_Neutral>
0.000857933

> <r_epik_State_Penalty>
0.000462053

> <r_epik_Charging_Adjusted_Penalty>
0.000462053

> <i_epik_Tot_Q>
0

> <i_epik_Tot_abs_Q>
0

> <r_epik_Metal_State_Penalty>
-0

> <b_epik_Metal_Only>
0

> <s_lp_Force_Field>
OPLS_2005

> <r_lp_Energy>
42.3005

> <b_lp_Chiralities_Consistent>
1

> <s_lp_Variant>
AV-unprocessed.smi:196-1

> <Gold.Version>
5.8.1

> <Gold.Id.Protein>
6NUR|6NUR_protein|mol2

> <Gold.PLP.Fitness>
39.0632

> <Gold.PLP.PLP>
-35.0912

> <Gold.PLP.part.hbond>
-3.2648

> <Gold.PLP.part.metal>
0.0000

> <Gold.PLP.part.buried>
-4.3110

> <Gold.PLP.part.nonpolar>
-27.8874

> <Gold.PLP.part.repulsive>
0.0850

> <Gold.PLP.ligand.clash>
0.0000

> <Gold.PLP.ligand.torsion>
0.9524

> <Gold.PLP.Chemscore.Hbond>
1.8744

> <Gold.PLP.Chemscore.CHOScore>
0.0000

> <Gold.PLP.Chemscore.Metal>
0.0000

> <Gold.Chemscore.Hbonds>
donor molecule, donor type, donor heavy atom, donor atom, acceptor molecule, acceptor atom, score
      L1  H     7    37       P1  7949  0.90
      P1  H 10752 10764       L1     7  0.99

> <Gold.PLP.Chemscore.Internal.Correction>
0.2537

> <Gold.Rescore>
     Score         DG    S(hbond)    S(metal)    S(lipo)     H(rot)  DE(clash)    DE(int)     intcor
     11.22     -12.26       1.61        0.00      68.85       2.60       0.08       0.96       ----

> <Gold.Chemscore.Fitness>
11.2160

> <Gold.Chemscore.DG>
-12.2570

> <Gold.Chemscore.ZeroCoef>
-5.4800

> <Gold.Chemscore.Hbond>
1.6074

> <Gold.Chemscore.Metal>
0.0000

> <Gold.Chemscore.Lipo>
68.8537

> <Gold.Chemscore.Internal_Hbond>
0.0000

> <Gold.Chemscore.DEClash>
0.0831

> <Gold.Chemscore.DEInternal>
0.9579

> <Gold.Chemscore.Rot>
2.5968

> <Gold.Chemscore.Internal.Correction>
   9.000000E+99

> <Gold.Chemscore.Hbonds>
donor molecule, donor type, donor heavy atom, donor atom, acceptor molecule, acceptor atom, score
      L1  H     7    37       P1  7949  0.75
      P1  H 10752 10764       L1     7  0.39

> <Gold.Chemscore.Hbond.Weighted>
-5.3689

> <Gold.Chemscore.Metal.Weighted>
-0.0000

> <Gold.Chemscore.Lipo.Weighted>
-8.0559

> <Gold.Chemscore.Internal_Hbond.Weighted>
0.0000

> <Gold.Chemscore.DEClash.Weighted>
0.0831

> <Gold.Chemscore.DEInternal.Weighted>
0.9579

> <Gold.Chemscore.Rot.Weighted>
6.6477

> <Gold.Chemscore.Internal.Correction.Weighted>
   9.000000E+99

> <Gold.Protein.RotatedTorsions>
[ 6907 6896 6895 6894 ] final -104.24 input  -60.11 | X-H torsion
[ 7974 7965 7964 7962 ] final -164.63 input  175.53 | X-H torsion
[ 8008 7997 7996 7995 ] final   54.40 input   59.86 | X-H torsion
[ 10167 10162 10161 10158 ] final -123.53 input  -65.29 | X-H torsion
[ 10718 10713 10712 10709 ] final -126.99 input   66.30 | X-H torsion
[ 10763 10752 10751 10750 ] final  -82.38 input  -60.55 | X-H torsion
[ 11005 11000 10999 10996 ] final   -2.77 input  -57.11 | X-H torsion

> <Gold.Protein.ActiveResidues>
 VAL166  LYS551  ARG553  GLY616  TRP617  ASP618  TYR619  PRO620  LYS621  CYS622 
 ASP623  PHE694  ASN695  SER759  ASP760  ASP761  ALA762  ILE779  LEU786  VAL792 
 PHE793  MET794  SER795  GLU796  ALA797  LYS798  CYS799  TRP800  GLU811  SER814 

> <Gold.Protein.RotatedAtoms>
  150.7277  134.0308  159.3732 H   0  0  0  0  0  0  0  0  0  0  0  0  # atno 6907 bound_to 6896
  151.8277  135.0629  160.0442 H   0  0  0  0  0  0  0  0  0  0  0  0  # atno 6908 bound_to 6896
  152.2956  133.5568  159.5622 H   0  0  0  0  0  0  0  0  0  0  0  0  # atno 6909 bound_to 6896
  144.7291  140.2932  143.6217 H   0  0  0  0  0  0  0  0  0  0  0  0  # atno 7974 bound_to 7965
  155.4842  140.3469  155.4344 H   0  0  0  0  0  0  0  0  0  0  0  0  # atno 8008 bound_to 7997
  156.1019  140.1438  156.9484 H   0  0  0  0  0  0  0  0  0  0  0  0  # atno 8009 bound_to 7997
  154.4699  140.0904  156.7096 H   0  0  0  0  0  0  0  0  0  0  0  0  # atno 8010 bound_to 7997
  140.0026  143.5525  152.2297 H   0  0  0  0  0  0  0  0  0  0  0  0  # atno 10167 bound_to 10162
  156.1816  130.6736  151.0312 H   0  0  0  0  0  0  0  0  0  0  0  0  # atno 10718 bound_to 10713
  154.5750  135.5593  153.7131 H   0  0  0  0  0  0  0  0  0  0  0  0  # atno 10763 bound_to 10752
  153.0061  135.6306  154.2062 H   0  0  0  0  0  0  0  0  0  0  0  0  # atno 10764 bound_to 10752
  154.2002  135.2878  155.2973 H   0  0  0  0  0  0  0  0  0  0  0  0  # atno 10765 bound_to 10752
  140.6620  133.9312  155.8442 H   0  0  0  0  0  0  0  0  0  0  0  0  # atno 11005 bound_to 11000
  145.7834  139.1900  143.2144 LP  0  0  0  0  0  0  0  0  0  0  0  0  # atno 17320 bound_to 7965
  146.0815  140.7758  142.9639 LP  0  0  0  0  0  0  0  0  0  0  0  0  # atno 17321 bound_to 7965
  139.6261  144.7637  151.2635 LP  0  0  0  0  0  0  0  0  0  0  0  0  # atno 17342 bound_to 10162
  140.7413  143.6561  150.8205 LP  0  0  0  0  0  0  0  0  0  0  0  0  # atno 17343 bound_to 10162
  157.6872  131.0821  150.7210 LP  0  0  0  0  0  0  0  0  0  0  0  0  # atno 17370 bound_to 10713
  156.7267  130.4697  149.5509 LP  0  0  0  0  0  0  0  0  0  0  0  0  # atno 17371 bound_to 10713
  141.0458  134.0556  157.3846 LP  0  0  0  0  0  0  0  0  0  0  0  0  # atno 17394 bound_to 11000
  139.9010  135.0164  156.7267 LP  0  0  0  0  0  0  0  0  0  0  0  0  # atno 17395 bound_to 11000

$$$$
