AV-unprocessed.smi:1385|AV-procd|sdf|5632|dock9
  -GOLD-   22720 5253D 1   1.00000     0.00000
 Structure written by MMmdl.
 38 39  0  0  0  0  0  0  0  0  3 V2000
  154.3302  130.3971  156.2357 C   0  0  0  0  0  0  0  0  0  0  0  0
  153.0571  131.1520  156.4092 C   0  0  0  0  0  0  0  0  0  0  0  0
  152.8962  132.0943  157.3417 N   0  0  0  0  0  0  0  0  0  0  0  0
  151.6273  132.6540  157.3054 N   0  0  0  0  0  0  0  0  0  0  0  0
  150.8516  132.1366  156.3421 C   0  0  0  0  0  0  0  0  0  0  0  0
  149.5861  132.5407  156.1432 N   0  5  0  0  0  0  0  0  0  0  0  0
  149.0230  132.4211  154.9201 C   0  0  0  0  0  0  0  0  0  0  0  0
  149.5408  131.9145  153.9221 O   0  0  0  0  0  0  0  0  0  0  0  0
  147.7820  132.9236  154.8485 N   0  0  0  0  0  0  0  0  0  0  0  0
  146.9329  132.9451  153.6615 C   0  0  2  0  0  0  0  0  0  0  0  0
  146.5625  131.5149  153.2269 C   0  0  0  0  0  0  0  0  0  0  0  0
  145.7628  131.5209  151.9144 C   0  0  0  0  0  0  0  0  0  0  0  0
  146.5085  132.2192  150.8367 N   0  3  1  0  0  0  0  0  0  0  0  0
  145.8291  132.1181  149.5196 C   0  0  0  0  0  0  0  0  0  0  0  0
  144.3386  132.4680  149.5843 C   0  0  0  0  0  0  0  0  0  0  0  0
  143.9630  133.6116  149.0072 N   0  0  0  0  0  0  0  0  0  0  0  0
  143.5389  131.7302  150.1573 O   0  0  0  0  0  0  0  0  0  0  0  0
  146.8363  133.6188  151.2192 C   0  0  0  0  0  0  0  0  0  0  0  0
  147.6645  133.6582  152.5134 C   0  0  0  0  0  0  0  0  0  0  0  0
  151.6478  130.8766  155.3996 S   0  0  0  0  0  0  0  0  0  0  0  0
  155.0032  130.9490  155.5795 H   0  0  0  0  0  0  0  0  0  0  0  0
  154.1322  129.4202  155.7943 H   0  0  0  0  0  0  0  0  0  0  0  0
  154.8198  130.2510  157.1989 H   0  0  0  0  0  0  0  0  0  0  0  0
  147.4008  133.3269  155.6919 H   0  0  0  0  0  0  0  0  0  0  0  0
  146.0203  133.5012  153.8849 H   0  0  0  0  0  0  0  0  0  0  0  0
  147.4686  130.9210  153.0966 H   0  0  0  0  0  0  0  0  0  0  0  0
  145.9802  131.0210  154.0057 H   0  0  0  0  0  0  0  0  0  0  0  0
  145.5607  130.4914  151.6168 H   0  0  0  0  0  0  0  0  0  0  0  0
  144.7961  132.0048  152.0637 H   0  0  0  0  0  0  0  0  0  0  0  0
  146.2827  132.8196  148.8182 H   0  0  0  0  0  0  0  0  0  0  0  0
  145.9713  131.1202  149.1011 H   0  0  0  0  0  0  0  0  0  0  0  0
  142.9928  133.8918  149.0165 H   0  0  0  0  0  0  0  0  0  0  0  0
  144.6543  134.1952  148.5578 H   0  0  0  0  0  0  0  0  0  0  0  0
  147.3984  134.1061  150.4221 H   0  0  0  0  0  0  0  0  0  0  0  0
  145.9143  134.1880  151.3478 H   0  0  0  0  0  0  0  0  0  0  0  0
  147.8711  134.6935  152.7874 H   0  0  0  0  0  0  0  0  0  0  0  0
  148.6323  133.1855  152.3376 H   0  0  0  0  0  0  0  0  0  0  0  0
  147.3861  131.7283  150.7371 H   0  0  0  0  0  0  0  0  0  0  0  0
  1  2  1  0  0  0  0
  1 21  1  0  0  0  0
  1 22  1  0  0  0  0
  1 23  1  0  0  0  0
  2 20  1  0  0  0  0
  2  3  2  0  0  0  0
  3  4  1  0  0  0  0
  4  5  2  0  0  0  0
  5  6  1  0  0  0  0
  5 20  1  0  0  0  0
  6  7  1  0  0  0  0
  7  8  2  0  0  0  0
  7  9  1  0  0  0  0
  9 10  1  0  0  0  0
  9 24  1  0  0  0  0
 10 19  1  0  0  0  0
 10 11  1  0  0  0  0
 10 25  1  0  0  0  0
 11 12  1  0  0  0  0
 11 26  1  0  0  0  0
 11 27  1  0  0  0  0
 12 13  1  0  0  0  0
 12 28  1  0  0  0  0
 12 29  1  0  0  0  0
 13 14  1  0  0  0  0
 13 18  1  0  0  0  0
 13 38  1  0  0  0  0
 14 15  1  0  0  0  0
 14 30  1  0  0  0  0
 14 31  1  0  0  0  0
 15 16  1  0  0  0  0
 15 17  2  0  0  0  0
 16 32  1  0  0  0  0
 16 33  1  0  0  0  0
 18 19  1  0  0  0  0
 18 34  1  0  0  0  0
 18 35  1  0  0  0  0
 19 36  1  0  0  0  0
 19 37  1  0  0  0  0
M  CHG  1   6  -1
M  CHG  1  13   1
M  END
> <s_m_source_file>
AV-unprocessed.smi

> <i_m_source_file_index>
1385

> <i_lp_mmshare_version>
43012

> <i_f3d_flags>
0

> <s_epik_input>
W0NIM11jMW5uYyhzMSlbTkhdQyg9TylbTkhdW0NIXTJbQ0gyXVtDSDJdTihbQ0gyXVtDSDJdMilbQ0gyXUMoPU8pW05IMl0=

> <s_epik_cmdline>
J2VwaWtfcHl0aG9uJywgJy1waCcsICc3LjAnLCAnLXRuJywgJzgnLCAnLW1hJywgJzIwMCcsICctbWV0YWxfYmluZGluZycsICctaW1hZScsICc8aW5maWxlLm1hZT4nLCAnLW9tYWUnLCAnPG91dGZpbGUubWFlPic=

> <r_lp_tautomer_probability>
1

> <r_epik_Ionization_Penalty>
3.90109

> <r_epik_Ionization_Penalty_Charging>
3.79141

> <r_epik_Ionization_Penalty_Neutral>
0.109679

> <r_epik_State_Penalty>
3.87237

> <r_epik_Charging_Adjusted_Penalty>
7.66378

> <i_epik_Tot_Q>
0

> <i_epik_Tot_abs_Q>
2

> <r_epik_Metal_State_Penalty>
1.33354

> <b_epik_Metal_Only>
1

> <s_lp_Force_Field>
OPLS_2005

> <r_lp_Energy>
4.67367

> <b_lp_Chiralities_Consistent>
1

> <s_lp_Variant>
AV-unprocessed.smi:1385-5

> <Gold.Version>
5.8.1

> <Gold.Id.Protein>
6NUR|6NUR_protein|mol2

> <Gold.PLP.Fitness>
43.7114

> <Gold.PLP.PLP>
-29.5849

> <Gold.PLP.part.hbond>
-5.0000

> <Gold.PLP.part.metal>
0.0000

> <Gold.PLP.part.buried>
-5.5520

> <Gold.PLP.part.nonpolar>
-20.7744

> <Gold.PLP.part.repulsive>
1.1466

> <Gold.PLP.ligand.clash>
0.0000

> <Gold.PLP.ligand.torsion>
0.3791

> <Gold.PLP.Chemscore.Hbond>
4.9513

> <Gold.PLP.Chemscore.CHOScore>
0.0000

> <Gold.PLP.Chemscore.Metal>
0.0000

> <Gold.Chemscore.Hbonds>
donor molecule, donor type, donor heavy atom, donor atom, acceptor molecule, acceptor atom, score
      L1  H    13    38       P1 10747  1.00
      L1  H    16    32       P1 10186  0.80
      L1  H    16    33       P1  7921  1.00
      P1  H  6896  6909       L1     4  0.97
      P1  H 10785 10796       L1    17  0.67

> <Gold.PLP.Chemscore.Internal.Correction>
0.0310

> <Gold.Rescore>
     Score         DG    S(hbond)    S(metal)    S(lipo)     H(rot)  DE(clash)    DE(int)     intcor
     14.26     -19.60       3.85        0.00      55.39       2.04       0.25       5.09       ----

> <Gold.Chemscore.Fitness>
14.2637

> <Gold.Chemscore.DG>
-19.5966

> <Gold.Chemscore.ZeroCoef>
-5.4800

> <Gold.Chemscore.Hbond>
3.8508

> <Gold.Chemscore.Metal>
0.0000

> <Gold.Chemscore.Lipo>
55.3926

> <Gold.Chemscore.Internal_Hbond>
0.0000

> <Gold.Chemscore.DEClash>
0.2458

> <Gold.Chemscore.DEInternal>
5.0870

> <Gold.Chemscore.Rot>
2.0415

> <Gold.Chemscore.Internal.Correction>
   9.000000E+99

> <Gold.Chemscore.Hbonds>
donor molecule, donor type, donor heavy atom, donor atom, acceptor molecule, acceptor atom, score
      L1  H    13    38       P1 10747  1.00
      L1  H    16    32       P1 10186  0.79
      L1  H    16    33       P1  7921  1.00
      P1  H  6896  6909       L1     4  0.34
      P1  H 10785 10796       L1    17  0.28

> <Gold.Chemscore.Hbond.Weighted>
-12.8618

> <Gold.Chemscore.Metal.Weighted>
-0.0000

> <Gold.Chemscore.Lipo.Weighted>
-6.4809

> <Gold.Chemscore.Internal_Hbond.Weighted>
0.0000

> <Gold.Chemscore.DEClash.Weighted>
0.2458

> <Gold.Chemscore.DEInternal.Weighted>
5.0870

> <Gold.Chemscore.Rot.Weighted>
5.2262

> <Gold.Chemscore.Internal.Correction.Weighted>
   9.000000E+99

> <Gold.Protein.RotatedTorsions>
[ 6907 6896 6895 6894 ] final  -42.96 input  -60.11 | X-H torsion
[ 7974 7965 7964 7962 ] final  -23.08 input  175.53 | X-H torsion
[ 8008 7997 7996 7995 ] final -128.15 input   59.86 | X-H torsion
[ 10167 10162 10161 10158 ] final   80.89 input  -65.29 | X-H torsion
[ 10718 10713 10712 10709 ] final  174.17 input   66.30 | X-H torsion
[ 10763 10752 10751 10750 ] final -164.99 input  -60.55 | X-H torsion
[ 11005 11000 10999 10996 ] final  -52.20 input  -57.11 | X-H torsion

> <Gold.Protein.ActiveResidues>
 VAL166  LYS551  ARG553  GLY616  TRP617  ASP618  TYR619  PRO620  LYS621  CYS622 
 ASP623  PHE694  ASN695  SER759  ASP760  ASP761  ALA762  ILE779  LEU786  VAL792 
 PHE793  MET794  SER795  GLU796  ALA797  LYS798  CYS799  TRP800  GLU811  SER814 

> <Gold.Protein.RotatedAtoms>
  150.9493  134.8895  159.7661 H   0  0  0  0  0  0  0  0  0  0  0  0  # atno 6907 bound_to 6896
  152.5113  134.3829  159.9367 H   0  0  0  0  0  0  0  0  0  0  0  0  # atno 6908 bound_to 6896
  151.3846  133.3769  159.2749 H   0  0  0  0  0  0  0  0  0  0  0  0  # atno 6909 bound_to 6896
  146.1637  140.4567  142.8560 H   0  0  0  0  0  0  0  0  0  0  0  0  # atno 7974 bound_to 7965
  155.2579  140.0435  157.2994 H   0  0  0  0  0  0  0  0  0  0  0  0  # atno 8008 bound_to 7997
  154.5729  140.2379  155.8135 H   0  0  0  0  0  0  0  0  0  0  0  0  # atno 8009 bound_to 7997
  156.2136  140.2991  155.9796 H   0  0  0  0  0  0  0  0  0  0  0  0  # atno 8010 bound_to 7997
  139.9450  144.6064  150.8215 H   0  0  0  0  0  0  0  0  0  0  0  0  # atno 10167 bound_to 10162
  156.9536  131.0039  151.2943 H   0  0  0  0  0  0  0  0  0  0  0  0  # atno 10718 bound_to 10713
  154.6975  135.2982  154.9390 H   0  0  0  0  0  0  0  0  0  0  0  0  # atno 10763 bound_to 10752
  154.0332  135.6667  153.4787 H   0  0  0  0  0  0  0  0  0  0  0  0  # atno 10764 bound_to 10752
  153.0657  135.5090  154.8101 H   0  0  0  0  0  0  0  0  0  0  0  0  # atno 10765 bound_to 10752
  141.0912  133.6632  156.3989 H   0  0  0  0  0  0  0  0  0  0  0  0  # atno 11005 bound_to 11000
  144.8063  140.6305  143.6445 LP  0  0  0  0  0  0  0  0  0  0  0  0  # atno 17320 bound_to 7965
  145.4522  139.1522  143.3912 LP  0  0  0  0  0  0  0  0  0  0  0  0  # atno 17321 bound_to 7965
  140.7600  143.3141  151.2775 LP  0  0  0  0  0  0  0  0  0  0  0  0  # atno 17342 bound_to 10162
  139.6674  144.0081  152.2731 LP  0  0  0  0  0  0  0  0  0  0  0  0  # atno 17343 bound_to 10162
  157.5705  130.8307  149.8385 LP  0  0  0  0  0  0  0  0  0  0  0  0  # atno 17370 bound_to 10713
  156.0352  130.3753  150.1579 LP  0  0  0  0  0  0  0  0  0  0  0  0  # atno 17371 bound_to 10713
  140.5248  134.6269  157.5330 LP  0  0  0  0  0  0  0  0  0  0  0  0  # atno 17394 bound_to 11000
  139.9738  134.7249  155.9990 LP  0  0  0  0  0  0  0  0  0  0  0  0  # atno 17395 bound_to 11000

$$$$
