AV-unprocessed.smi:130|AV-procd|sdf|1160|dock7
  -GOLD-   2262018303D 1   1.00000     0.00000
 Structure written by MMmdl.
 44 47  0  0  0  0  0  0  0  0  1 V2000
  152.5024  140.6276  157.8272 O   0  0  0  0  0  0  0  0  0  0  0  0
  151.9341  141.7197  157.7940 C   0  0  0  0  0  0  0  0  0  0  0  0
  151.1771  142.1265  156.5103 C   0  0  0  0  0  0  0  0  0  0  0  0
  149.9297  141.3613  156.2874 N   0  0  0  0  0  0  0  0  0  0  0  0
  149.9122  140.3641  155.2802 C   0  0  0  0  0  0  0  0  0  0  0  0
  150.9144  140.1184  154.6074 O   0  0  0  0  0  0  0  0  0  0  0  0
  148.6398  139.6747  155.0981 C   0  0  0  0  0  0  0  0  0  0  0  0
  148.5292  138.7185  154.1604 F   0  0  0  0  0  0  0  0  0  0  0  0
  147.5667  139.9851  155.8543 C   0  0  0  0  0  0  0  0  0  0  0  0
  147.5995  140.9577  156.8370 N   0  0  0  0  0  0  0  0  0  0  0  0
  146.3740  141.2896  157.6597 C   0  0  1  0  0  0  0  0  0  0  0  0
  146.0209  142.7740  157.5120 C   0  0  0  0  0  0  0  0  0  0  0  0
  145.0012  142.7413  156.3945 C   0  0  0  0  0  0  0  0  0  0  0  0
  144.2852  141.4244  156.6720 C   0  0  0  0  0  0  0  0  0  0  0  0
  145.2874  140.5490  157.1825 O   0  0  0  0  0  0  0  0  0  0  0  0
  148.7901  141.6814  157.0638 C   0  0  0  0  0  0  0  0  0  0  0  0
  148.8301  142.5776  157.9098 O   0  0  0  0  0  0  0  0  0  0  0  0
  151.9355  142.5914  158.8332 N   0  0  0  0  0  0  0  0  0  0  0  0
  151.2550  143.8978  158.7995 C   0  0  0  0  0  0  0  0  0  0  0  0
  151.5034  144.5533  160.1759 C   0  0  0  0  0  0  0  0  0  0  0  0
  152.3303  143.5289  160.8950 C   0  0  0  0  0  0  0  0  0  0  0  0
  152.8347  143.6244  162.2035 C   0  0  0  0  0  0  0  0  0  0  0  0
  153.5975  142.5488  162.7049 C   0  0  0  0  0  0  0  0  0  0  0  0
  153.8414  141.4111  161.9021 C   0  0  0  0  0  0  0  0  0  0  0  0
  153.3267  141.3317  160.5893 C   0  0  0  0  0  0  0  0  0  0  0  0
  152.5625  142.4135  160.0955 C   0  0  0  0  0  0  0  0  0  0  0  0
  150.9678  143.1962  156.5504 H   0  0  0  0  0  0  0  0  0  0  0  0
  151.8415  142.0149  155.6525 H   0  0  0  0  0  0  0  0  0  0  0  0
  146.6491  139.4474  155.6689 H   0  0  0  0  0  0  0  0  0  0  0  0
  146.6029  140.9869  158.6827 H   0  0  0  0  0  0  0  0  0  0  0  0
  145.5603  143.1157  158.4398 H   0  0  0  0  0  0  0  0  0  0  0  0
  146.8939  143.3930  157.3015 H   0  0  0  0  0  0  0  0  0  0  0  0
  144.3305  143.6009  156.3997 H   0  0  0  0  0  0  0  0  0  0  0  0
  145.5028  142.7036  155.4267 H   0  0  0  0  0  0  0  0  0  0  0  0
  143.5204  141.5630  157.4372 H   0  0  0  0  0  0  0  0  0  0  0  0
  143.8067  141.0101  155.7842 H   0  0  0  0  0  0  0  0  0  0  0  0
  151.6598  144.5250  158.0043 H   0  0  0  0  0  0  0  0  0  0  0  0
  150.1853  143.7725  158.6269 H   0  0  0  0  0  0  0  0  0  0  0  0
  152.0527  145.4909  160.0859 H   0  0  0  0  0  0  0  0  0  0  0  0
  150.5727  144.7389  160.7128 H   0  0  0  0  0  0  0  0  0  0  0  0
  152.6440  144.4978  162.8097 H   0  0  0  0  0  0  0  0  0  0  0  0
  153.9974  142.5949  163.7072 H   0  0  0  0  0  0  0  0  0  0  0  0
  154.4270  140.5938  162.2963 H   0  0  0  0  0  0  0  0  0  0  0  0
  153.5306  140.4509  160.0018 H   0  0  0  0  0  0  0  0  0  0  0  0
  1  2  2  0  0  0  0
  2  3  1  0  0  0  0
  2 18  1  0  0  0  0
  3  4  1  0  0  0  0
  3 27  1  0  0  0  0
  3 28  1  0  0  0  0
  4 16  1  0  0  0  0
  4  5  1  0  0  0  0
  5  6  2  0  0  0  0
  5  7  1  0  0  0  0
  7  8  1  0  0  0  0
  7  9  2  0  0  0  0
  9 10  1  0  0  0  0
  9 29  1  0  0  0  0
 10 11  1  0  0  0  0
 10 16  1  0  0  0  0
 11 15  1  0  0  0  0
 11 12  1  0  0  0  0
 11 30  1  0  0  0  0
 12 13  1  0  0  0  0
 12 31  1  0  0  0  0
 12 32  1  0  0  0  0
 13 14  1  0  0  0  0
 13 33  1  0  0  0  0
 13 34  1  0  0  0  0
 14 15  1  0  0  0  0
 14 35  1  0  0  0  0
 14 36  1  0  0  0  0
 16 17  2  0  0  0  0
 18 26  1  0  0  0  0
 18 19  1  0  0  0  0
 19 20  1  0  0  0  0
 19 37  1  0  0  0  0
 19 38  1  0  0  0  0
 20 21  1  0  0  0  0
 20 39  1  0  0  0  0
 20 40  1  0  0  0  0
 21 26  2  0  0  0  0
 21 22  1  0  0  0  0
 22 23  2  0  0  0  0
 22 41  1  0  0  0  0
 23 24  1  0  0  0  0
 23 42  1  0  0  0  0
 24 25  2  0  0  0  0
 24 43  1  0  0  0  0
 25 26  1  0  0  0  0
 25 44  1  0  0  0  0
M  END
> <s_m_source_file>
AV-unprocessed.smi

> <i_m_source_file_index>
130

> <i_lp_mmshare_version>
43012

> <i_f3d_flags>
0

> <s_epik_input>
W2NIXTFbY0hdW2NIXVtjSF1jKGMxMilOKFtDSDJdW0NIMl0yKUMoPU8pW0NIMl1uM2MoPU8pYyhGKVtjSF1uKGMzPU8pW0NAQEhdNFtDSDJdW0NIMl1bQ0gyXU80

> <s_epik_cmdline>
J2VwaWtfcHl0aG9uJywgJy1waCcsICc3LjAnLCAnLXRuJywgJzgnLCAnLW1hJywgJzIwMCcsICctbWV0YWxfYmluZGluZycsICctaW1hZScsICc8aW5maWxlLm1hZT4nLCAnLW9tYWUnLCAnPG91dGZpbGUubWFlPic=

> <r_lp_tautomer_probability>
1

> <r_epik_Ionization_Penalty>
1.67926e-06

> <r_epik_Ionization_Penalty_Charging>
3.62822e-09

> <r_epik_Ionization_Penalty_Neutral>
1.67563e-06

> <r_epik_State_Penalty>
-0

> <r_epik_Charging_Adjusted_Penalty>
3.62822e-09

> <i_epik_Tot_Q>
0

> <i_epik_Tot_abs_Q>
0

> <r_epik_Metal_State_Penalty>
-0

> <b_epik_Metal_Only>
0

> <s_epik_Chemistry_Notes>
This compound contains an acetal/aminal-like group ( X-CH(R)-Y where X, Y are N, S, or O) that may be acid/base labile, releasing an aldehyde.

> <s_lp_Force_Field>
OPLS_2005

> <r_lp_Energy>
53.4438

> <b_lp_Chiralities_Consistent>
1

> <s_lp_Variant>
AV-unprocessed.smi:130-2

> <Gold.Version>
5.8.1

> <Gold.Id.Protein>
6NUR|6NUR_protein|mol2

> <Gold.PLP.Fitness>
50.4572

> <Gold.PLP.PLP>
-47.2597

> <Gold.PLP.part.hbond>
-1.6710

> <Gold.PLP.part.metal>
0.0000

> <Gold.PLP.part.buried>
-7.6316

> <Gold.PLP.part.nonpolar>
-37.2747

> <Gold.PLP.part.repulsive>
0.6875

> <Gold.PLP.ligand.clash>
0.0000

> <Gold.PLP.ligand.torsion>
0.3418

> <Gold.PLP.Chemscore.Hbond>
1.2903

> <Gold.PLP.Chemscore.CHOScore>
0.0000

> <Gold.PLP.Chemscore.Metal>
0.0000

> <Gold.Chemscore.Hbonds>
donor molecule, donor type, donor heavy atom, donor atom, acceptor molecule, acceptor atom, score
      P1  H  7989  7998       L1     6  0.98
      P1  H  7997  8010       L1     1  0.35

> <Gold.PLP.Chemscore.Internal.Correction>
0.0103

> <Gold.Rescore>
     Score         DG    S(hbond)    S(metal)    S(lipo)     H(rot)  DE(clash)    DE(int)     intcor
     14.08     -18.01       1.31        0.00     103.93       1.57       0.06       3.86       ----

> <Gold.Chemscore.Fitness>
14.0845

> <Gold.Chemscore.DG>
-18.0055

> <Gold.Chemscore.ZeroCoef>
-5.4800

> <Gold.Chemscore.Hbond>
1.3133

> <Gold.Chemscore.Metal>
0.0000

> <Gold.Chemscore.Lipo>
103.9278

> <Gold.Chemscore.Internal_Hbond>
0.0000

> <Gold.Chemscore.DEClash>
0.0641

> <Gold.Chemscore.DEInternal>
3.8568

> <Gold.Chemscore.Rot>
1.5704

> <Gold.Chemscore.Internal.Correction>
   9.000000E+99

> <Gold.Chemscore.Hbonds>
donor molecule, donor type, donor heavy atom, donor atom, acceptor molecule, acceptor atom, score
      P1  H  7989  7998       L1     6  0.91
      P1  H  7997  8010       L1     1  0.35

> <Gold.Chemscore.Hbond.Weighted>
-4.3863

> <Gold.Chemscore.Metal.Weighted>
-0.0000

> <Gold.Chemscore.Lipo.Weighted>
-12.1596

> <Gold.Chemscore.Internal_Hbond.Weighted>
0.0000

> <Gold.Chemscore.DEClash.Weighted>
0.0641

> <Gold.Chemscore.DEInternal.Weighted>
3.8568

> <Gold.Chemscore.Rot.Weighted>
4.0203

> <Gold.Chemscore.Internal.Correction.Weighted>
   9.000000E+99

> <Gold.Protein.RotatedTorsions>
[ 6907 6896 6895 6894 ] final   92.13 input  -60.11 | X-H torsion
[ 7974 7965 7964 7962 ] final  159.22 input  175.53 | X-H torsion
[ 8008 7997 7996 7995 ] final   51.69 input   59.86 | X-H torsion
[ 10167 10162 10161 10158 ] final  129.15 input  -65.29 | X-H torsion
[ 10718 10713 10712 10709 ] final  146.48 input   66.30 | X-H torsion
[ 10763 10752 10751 10750 ] final  -49.42 input  -60.55 | X-H torsion
[ 11005 11000 10999 10996 ] final   22.16 input  -57.11 | X-H torsion

> <Gold.Protein.ActiveResidues>
 VAL166  LYS551  ARG553  GLY616  TRP617  ASP618  TYR619  PRO620  LYS621  CYS622 
 ASP623  PHE694  ASN695  SER759  ASP760  ASP761  ALA762  ILE779  LEU786  VAL792 
 PHE793  MET794  SER795  GLU796  ALA797  LYS798  CYS799  TRP800  GLU811  SER814 

> <Gold.Protein.RotatedAtoms>
  152.5452  134.1550  159.8534 H   0  0  0  0  0  0  0  0  0  0  0  0  # atno 6907 bound_to 6896
  151.1574  133.4860  159.2602 H   0  0  0  0  0  0  0  0  0  0  0  0  # atno 6908 bound_to 6896
  151.1409  135.0190  159.8680 H   0  0  0  0  0  0  0  0  0  0  0  0  # atno 6909 bound_to 6896
  144.7802  139.7587  143.6262 H   0  0  0  0  0  0  0  0  0  0  0  0  # atno 7974 bound_to 7965
  155.4395  140.3454  155.4288 H   0  0  0  0  0  0  0  0  0  0  0  0  # atno 8008 bound_to 7997
  156.1287  140.1508  156.9127 H   0  0  0  0  0  0  0  0  0  0  0  0  # atno 8009 bound_to 7997
  154.4878  140.0850  156.7506 H   0  0  0  0  0  0  0  0  0  0  0  0  # atno 8010 bound_to 7997
  139.5492  144.6799  151.4377 H   0  0  0  0  0  0  0  0  0  0  0  0  # atno 10167 bound_to 10162
  157.3326  131.0923  151.1149 H   0  0  0  0  0  0  0  0  0  0  0  0  # atno 10718 bound_to 10713
  154.0938  135.6573  153.4857 H   0  0  0  0  0  0  0  0  0  0  0  0  # atno 10763 bound_to 10752
  153.0312  135.5208  154.7354 H   0  0  0  0  0  0  0  0  0  0  0  0  # atno 10764 bound_to 10752
  154.6486  135.2998  154.9984 H   0  0  0  0  0  0  0  0  0  0  0  0  # atno 10765 bound_to 10752
  140.3836  134.1894  155.7663 H   0  0  0  0  0  0  0  0  0  0  0  0  # atno 11005 bound_to 11000
  146.2006  139.5298  142.9746 LP  0  0  0  0  0  0  0  0  0  0  0  0  # atno 17320 bound_to 7965
  145.6071  141.0346  143.1987 LP  0  0  0  0  0  0  0  0  0  0  0  0  # atno 17321 bound_to 7965
  140.6749  143.8211  150.7046 LP  0  0  0  0  0  0  0  0  0  0  0  0  # atno 17342 bound_to 10162
  140.1647  143.4246  152.2043 LP  0  0  0  0  0  0  0  0  0  0  0  0  # atno 17343 bound_to 10162
  157.2392  130.6561  149.5882 LP  0  0  0  0  0  0  0  0  0  0  0  0  # atno 17370 bound_to 10713
  155.9697  130.4574  150.5960 LP  0  0  0  0  0  0  0  0  0  0  0  0  # atno 17371 bound_to 10713
  141.1915  133.8193  157.0876 LP  0  0  0  0  0  0  0  0  0  0  0  0  # atno 17394 bound_to 11000
  140.0460  134.9830  157.1049 LP  0  0  0  0  0  0  0  0  0  0  0  0  # atno 17395 bound_to 11000

$$$$
