AV-unprocessed.smi:48|AV-procd|sdf|458|dock3
  -GOLD-   2262016323D 1   1.00000     0.00000
 Structure written by MMmdl.
 30 32  0  0  0  0  0  0  0  0  1 V2000
  151.7181  137.1920  153.9740 O   0  0  0  0  0  0  0  0  0  0  0  0
  150.5457  137.7586  154.5184 C   0  0  0  0  0  0  0  0  0  0  0  0
  150.5968  139.2897  154.4053 C   0  0  2  0  0  0  0  0  0  0  0  0
  151.6065  139.8007  155.2640 O   0  0  0  0  0  0  0  0  0  0  0  0
  151.3051  141.1115  155.6262 C   0  0  2  0  0  0  0  0  0  0  0  0
  151.6147  141.2554  157.0844 N   0  0  0  0  0  0  0  0  0  0  0  0
  151.8196  140.2705  157.9824 C   0  0  0  0  0  0  0  0  0  0  0  0
  152.0836  140.6297  159.2381 N   0  0  0  0  0  0  0  0  0  0  0  0
  152.0401  142.0113  159.1454 C   0  0  0  0  0  0  0  0  0  0  0  0
  152.2273  143.0437  160.0963 C   0  0  0  0  0  0  0  0  0  0  0  0
  152.5901  142.6795  161.7437 Cl  0  0  0  0  0  0  0  0  0  0  0  0
  152.1150  144.3290  159.6841 N   0  0  0  0  0  0  0  0  0  0  0  0
  151.8342  144.5836  158.4002 C   0  0  0  0  0  0  0  0  0  0  0  0
  151.6347  143.7218  157.3967 N   0  0  0  0  0  0  0  0  0  0  0  0
  151.7470  142.4260  157.8150 C   0  0  0  0  0  0  0  0  0  0  0  0
  149.8164  141.3653  155.2977 C   0  0  2  0  0  0  0  0  0  0  0  0
  149.0548  141.8881  156.3722 O   0  0  0  0  0  0  0  0  0  0  0  0
  149.3236  139.9790  154.9040 C   0  0  1  0  0  0  0  0  0  0  0  0
  148.3697  140.0613  153.8635 O   0  0  0  0  0  0  0  0  0  0  0  0
  150.8123  139.6071  153.3826 H   0  0  0  0  0  0  0  0  0  0  0  0
  151.9761  141.8125  155.1280 H   0  0  0  0  0  0  0  0  0  0  0  0
  149.7780  142.0498  154.4489 H   0  0  0  0  0  0  0  0  0  0  0  0
  148.9125  139.4487  155.7647 H   0  0  0  0  0  0  0  0  0  0  0  0
  152.2791  137.8919  153.6765 H   0  0  0  0  0  0  0  0  0  0  0  0
  149.7006  137.3684  153.9507 H   0  0  0  0  0  0  0  0  0  0  0  0
  150.4142  137.4412  155.5534 H   0  0  0  0  0  0  0  0  0  0  0  0
  151.7771  139.2295  157.6973 H   0  0  0  0  0  0  0  0  0  0  0  0
  151.7575  145.6285  158.1379 H   0  0  0  0  0  0  0  0  0  0  0  0
  148.9273  142.8132  156.2294 H   0  0  0  0  0  0  0  0  0  0  0  0
  148.7984  139.8604  153.0458 H   0  0  0  0  0  0  0  0  0  0  0  0
  1  2  1  0  0  0  0
  1 24  1  0  0  0  0
  2  3  1  0  0  0  0
  2 25  1  0  0  0  0
  2 26  1  0  0  0  0
  3 20  1  0  0  0  0
  3 18  1  0  0  0  0
  3  4  1  0  0  0  0
  4  5  1  0  0  0  0
  5 21  1  0  0  0  0
  5  6  1  0  0  0  0
  5 16  1  0  0  0  0
  6 15  1  0  0  0  0
  6  7  1  0  0  0  0
  7  8  2  0  0  0  0
  7 27  1  0  0  0  0
  8  9  1  0  0  0  0
  9 15  2  0  0  0  0
  9 10  1  0  0  0  0
 10 11  1  0  0  0  0
 10 12  2  0  0  0  0
 12 13  1  0  0  0  0
 13 14  2  0  0  0  0
 13 28  1  0  0  0  0
 14 15  1  0  0  0  0
 16 22  1  0  0  0  0
 16 17  1  0  0  0  0
 16 18  1  0  0  0  0
 17 29  1  0  0  0  0
 18 23  1  0  0  0  0
 18 19  1  0  0  0  0
 19 30  1  0  0  0  0
M  END
> <s_m_source_file>
AV-unprocessed.smi

> <i_m_source_file_index>
48

> <i_lp_mmshare_version>
43012

> <i_f3d_flags>
0

> <s_epik_input>
W09IXVtDSDJdW0NASF0xT1tDQEhdKFtDQEhdKFtPSF0pW0NAQEhdMVtPSF0pbihbY0hdbjIpYyhjMjMpbltjSF1uYzNDbA==

> <s_epik_cmdline>
J2VwaWtfcHl0aG9uJywgJy1waCcsICc3LjAnLCAnLXRuJywgJzgnLCAnLW1hJywgJzIwMCcsICctbWV0YWxfYmluZGluZycsICctaW1hZScsICc8aW5maWxlLm1hZT4nLCAnLW9tYWUnLCAnPG91dGZpbGUubWFlPic=

> <r_lp_tautomer_probability>
1

> <r_epik_Ionization_Penalty>
3.45505e-06

> <r_epik_Ionization_Penalty_Charging>
0

> <r_epik_Ionization_Penalty_Neutral>
3.45505e-06

> <r_epik_State_Penalty>
-0

> <r_epik_Charging_Adjusted_Penalty>
0

> <i_epik_Tot_Q>
0

> <i_epik_Tot_abs_Q>
0

> <r_epik_Metal_State_Penalty>
-0

> <b_epik_Metal_Only>
0

> <s_epik_Chemistry_Notes>
This compound contains an acetal/aminal-like group ( X-CH(R)-Y where X, Y are N, S, or O) that may be acid/base labile, releasing an aldehyde.

> <s_lp_Force_Field>
OPLS_2005

> <r_lp_Energy>
37.188

> <b_lp_Chiralities_Consistent>
1

> <s_lp_Variant>
AV-unprocessed.smi:48-12

> <Gold.Version>
5.8.1

> <Gold.Id.Protein>
6NUR|6NUR_protein|mol2

> <Gold.PLP.Fitness>
46.4981

> <Gold.PLP.PLP>
-38.3655

> <Gold.PLP.part.hbond>
-5.0000

> <Gold.PLP.part.metal>
0.0000

> <Gold.PLP.part.buried>
-4.8293

> <Gold.PLP.part.nonpolar>
-26.4620

> <Gold.PLP.part.repulsive>
0.1696

> <Gold.PLP.ligand.clash>
0.0000

> <Gold.PLP.ligand.torsion>
0.4249

> <Gold.PLP.Chemscore.Hbond>
2.9913

> <Gold.PLP.Chemscore.CHOScore>
0.0000

> <Gold.PLP.Chemscore.Metal>
0.0000

> <Gold.Chemscore.Hbonds>
donor molecule, donor type, donor heavy atom, donor atom, acceptor molecule, acceptor atom, score
      L1  H    17    29       P1  8028  1.00
      L1  H    19    30       P1  7957  0.93
      P1  H 10752 10764       L1     1  1.00

> <Gold.PLP.Chemscore.Internal.Correction>
0.0088

> <Gold.Rescore>
     Score         DG    S(hbond)    S(metal)    S(lipo)     H(rot)  DE(clash)    DE(int)     intcor
     10.02     -11.84       2.70        0.00      60.53       3.80       1.32       0.50       ----

> <Gold.Chemscore.Fitness>
10.0222

> <Gold.Chemscore.DG>
-11.8430

> <Gold.Chemscore.ZeroCoef>
-5.4800

> <Gold.Chemscore.Hbond>
2.6986

> <Gold.Chemscore.Metal>
0.0000

> <Gold.Chemscore.Lipo>
60.5306

> <Gold.Chemscore.Internal_Hbond>
0.0000

> <Gold.Chemscore.DEClash>
1.3249

> <Gold.Chemscore.DEInternal>
0.4958

> <Gold.Chemscore.Rot>
3.8017

> <Gold.Chemscore.Internal.Correction>
   9.000000E+99

> <Gold.Chemscore.Hbonds>
donor molecule, donor type, donor heavy atom, donor atom, acceptor molecule, acceptor atom, score
      L1  H    17    29       P1  8028  0.97
      L1  H    19    30       P1  7957  0.88
      P1  H 10752 10764       L1     1  0.29

> <Gold.Chemscore.Hbond.Weighted>
-9.0133

> <Gold.Chemscore.Metal.Weighted>
-0.0000

> <Gold.Chemscore.Lipo.Weighted>
-7.0821

> <Gold.Chemscore.Internal_Hbond.Weighted>
0.0000

> <Gold.Chemscore.DEClash.Weighted>
1.3249

> <Gold.Chemscore.DEInternal.Weighted>
0.4958

> <Gold.Chemscore.Rot.Weighted>
9.7324

> <Gold.Chemscore.Internal.Correction.Weighted>
   9.000000E+99

> <Gold.Protein.RotatedTorsions>
[ 6907 6896 6895 6894 ] final  102.66 input  -60.11 | X-H torsion
[ 7974 7965 7964 7962 ] final -167.17 input  175.53 | X-H torsion
[ 8008 7997 7996 7995 ] final  173.05 input   59.86 | X-H torsion
[ 10167 10162 10161 10158 ] final -122.68 input  -65.29 | X-H torsion
[ 10718 10713 10712 10709 ] final  156.48 input   66.30 | X-H torsion
[ 10763 10752 10751 10750 ] final  -89.17 input  -60.55 | X-H torsion
[ 11005 11000 10999 10996 ] final   37.12 input  -57.11 | X-H torsion

> <Gold.Protein.ActiveResidues>
 VAL166  LYS551  ARG553  GLY616  TRP617  ASP618  TYR619  PRO620  LYS621  CYS622 
 ASP623  PHE694  ASN695  SER759  ASP760  ASP761  ALA762  ILE779  LEU786  VAL792 
 PHE793  MET794  SER795  GLU796  ALA797  LYS798  CYS799  TRP800  GLU811  SER814 

> <Gold.Protein.RotatedAtoms>
  152.5317  133.9941  159.7864 H   0  0  0  0  0  0  0  0  0  0  0  0  # atno 6907 bound_to 6896
  151.0172  133.5902  159.2682 H   0  0  0  0  0  0  0  0  0  0  0  0  # atno 6908 bound_to 6896
  151.2955  135.0761  159.9273 H   0  0  0  0  0  0  0  0  0  0  0  0  # atno 6909 bound_to 6896
  144.7229  140.2559  143.6272 H   0  0  0  0  0  0  0  0  0  0  0  0  # atno 7974 bound_to 7965
  156.1114  140.1470  156.9333 H   0  0  0  0  0  0  0  0  0  0  0  0  # atno 8008 bound_to 7997
  154.4770  140.0891  156.7328 H   0  0  0  0  0  0  0  0  0  0  0  0  # atno 8009 bound_to 7997
  155.4589  140.3437  155.4312 H   0  0  0  0  0  0  0  0  0  0  0  0  # atno 8010 bound_to 7997
  140.0116  143.5436  152.2260 H   0  0  0  0  0  0  0  0  0  0  0  0  # atno 10167 bound_to 10162
  157.2043  131.0683  151.2007 H   0  0  0  0  0  0  0  0  0  0  0  0  # atno 10718 bound_to 10713
  154.6524  135.5350  153.7918 H   0  0  0  0  0  0  0  0  0  0  0  0  # atno 10763 bound_to 10752
  153.0394  135.6485  154.0996 H   0  0  0  0  0  0  0  0  0  0  0  0  # atno 10764 bound_to 10752
  154.0912  135.2940  155.3251 H   0  0  0  0  0  0  0  0  0  0  0  0  # atno 10765 bound_to 10752
  140.2257  134.3588  155.7985 H   0  0  0  0  0  0  0  0  0  0  0  0  # atno 11005 bound_to 11000
  145.8183  139.2033  143.1953 LP  0  0  0  0  0  0  0  0  0  0  0  0  # atno 17320 bound_to 7965
  146.0536  140.8044  142.9769 LP  0  0  0  0  0  0  0  0  0  0  0  0  # atno 17321 bound_to 7965
  139.6201  144.7627  151.2759 LP  0  0  0  0  0  0  0  0  0  0  0  0  # atno 17342 bound_to 10162
  140.7379  143.6664  150.8119 LP  0  0  0  0  0  0  0  0  0  0  0  0  # atno 17343 bound_to 10162
  157.3736  130.7194  149.6581 LP  0  0  0  0  0  0  0  0  0  0  0  0  # atno 17370 bound_to 10713
  155.9697  130.4192  150.4364 LP  0  0  0  0  0  0  0  0  0  0  0  0  # atno 17371 bound_to 10713
  141.2221  133.7218  156.8649 LP  0  0  0  0  0  0  0  0  0  0  0  0  # atno 17394 bound_to 11000
  140.1803  134.9038  157.2940 LP  0  0  0  0  0  0  0  0  0  0  0  0  # atno 17395 bound_to 11000

$$$$
