AV-unprocessed.smi:3330|AV-procd|sdf|12811|dock6
  -GOLD-   2272019183D 1   1.00000     0.00000
 Structure written by MMmdl.
 38 39  0  0  0  0  0  0  0  0  3 V2000
  146.5893  139.3481  151.8086 C   0  0  0  0  0  0  0  0  0  0  0  0
  147.2015  139.1337  153.2052 C   0  0  2  0  0  0  0  0  0  0  0  0
  148.5616  138.5717  153.0454 N   0  3  0  0  0  0  0  0  0  0  0  0
  149.3347  138.4469  154.2968 C   0  0  0  0  0  0  0  0  0  0  0  0
  150.8423  138.4336  154.0081 C   0  0  0  0  0  0  0  0  0  0  0  0
  151.6169  138.4377  155.2516 N   0  0  0  0  0  0  0  0  0  0  0  0
  152.0666  137.3384  155.8639 C   0  0  0  0  0  0  0  0  0  0  0  0
  151.9135  136.1665  155.5196 O   0  0  0  0  0  0  0  0  0  0  0  0
  152.8354  137.7815  157.0869 C   0  0  0  0  0  0  0  0  0  0  0  0
  152.7330  139.2215  157.0100 N   0  5  0  0  0  0  0  0  0  0  0  0
  152.0115  139.5430  155.9115 C   0  0  0  0  0  0  0  0  0  0  0  0
  151.7322  140.6751  155.5176 O   0  0  0  0  0  0  0  0  0  0  0  0
  146.3352  138.2185  154.1137 C   0  0  1  0  0  0  0  0  0  0  0  0
  145.2293  138.9841  154.8652 C   0  0  0  0  0  0  0  0  0  0  0  0
  145.7538  137.1048  153.3746 N   0  0  0  0  0  0  0  0  0  0  0  0
  144.6907  137.1263  152.4950 C   0  0  0  0  0  0  0  0  0  0  0  0
  144.5051  135.8499  152.0469 C   0  0  0  0  0  0  0  0  0  0  0  0
  145.5184  135.1066  152.7135 C   0  0  0  0  0  0  0  0  0  0  0  0
  146.2643  135.8593  153.5058 N   0  0  0  0  0  0  0  0  0  0  0  0
  145.6327  139.8683  151.8599 H   0  0  0  0  0  0  0  0  0  0  0  0
  146.4254  138.3991  151.2971 H   0  0  0  0  0  0  0  0  0  0  0  0
  147.2461  139.9537  151.1833 H   0  0  0  0  0  0  0  0  0  0  0  0
  147.2778  140.1179  153.6714 H   0  0  0  0  0  0  0  0  0  0  0  0
  148.4842  137.6600  152.6178 H   0  0  0  0  0  0  0  0  0  0  0  0
  149.0857  139.2810  154.9544 H   0  0  0  0  0  0  0  0  0  0  0  0
  149.0458  137.5323  154.8154 H   0  0  0  0  0  0  0  0  0  0  0  0
  151.1032  137.5559  153.4139 H   0  0  0  0  0  0  0  0  0  0  0  0
  151.1125  139.2961  153.3962 H   0  0  0  0  0  0  0  0  0  0  0  0
  152.3783  137.3639  157.9846 H   0  0  0  0  0  0  0  0  0  0  0  0
  153.8626  137.4193  157.0317 H   0  0  0  0  0  0  0  0  0  0  0  0
  146.9929  137.7789  154.8652 H   0  0  0  0  0  0  0  0  0  0  0  0
  145.6479  139.7125  155.5596 H   0  0  0  0  0  0  0  0  0  0  0  0
  144.6110  138.3033  155.4512 H   0  0  0  0  0  0  0  0  0  0  0  0
  144.5734  139.5187  154.1772 H   0  0  0  0  0  0  0  0  0  0  0  0
  144.1589  138.0377  152.2642 H   0  0  0  0  0  0  0  0  0  0  0  0
  143.7597  135.5007  151.3475 H   0  0  0  0  0  0  0  0  0  0  0  0
  145.7329  134.0502  152.6455 H   0  0  0  0  0  0  0  0  0  0  0  0
  149.0815  139.1743  152.4237 H   0  0  0  0  0  0  0  0  0  0  0  0
  1  2  1  0  0  0  0
  1 20  1  0  0  0  0
  1 21  1  0  0  0  0
  1 22  1  0  0  0  0
  2  3  1  0  0  0  0
  2 13  1  0  0  0  0
  2 23  1  0  0  0  0
  3  4  1  0  0  0  0
  3 24  1  0  0  0  0
  3 38  1  0  0  0  0
  4  5  1  0  0  0  0
  4 25  1  0  0  0  0
  4 26  1  0  0  0  0
  5  6  1  0  0  0  0
  5 27  1  0  0  0  0
  5 28  1  0  0  0  0
  6 11  1  0  0  0  0
  6  7  1  0  0  0  0
  7  8  2  0  0  0  0
  7  9  1  0  0  0  0
  9 10  1  0  0  0  0
  9 29  1  0  0  0  0
  9 30  1  0  0  0  0
 10 11  1  0  0  0  0
 11 12  2  0  0  0  0
 13 14  1  0  0  0  0
 13 15  1  0  0  0  0
 13 31  1  0  0  0  0
 14 32  1  0  0  0  0
 14 33  1  0  0  0  0
 14 34  1  0  0  0  0
 15 19  1  0  0  0  0
 15 16  1  0  0  0  0
 16 17  2  0  0  0  0
 16 35  1  0  0  0  0
 17 18  1  0  0  0  0
 17 36  1  0  0  0  0
 18 19  2  0  0  0  0
 18 37  1  0  0  0  0
M  CHG  1   3   1
M  CHG  1  10  -1
M  END
> <s_m_source_file>
AV-unprocessed.smi

> <i_m_source_file_index>
3330

> <i_lp_mmshare_version>
43012

> <i_f3d_flags>
0

> <s_epik_input>
bjFbY0hdW2NIXVtjSF1uMVtDQEBIXShbQ0gzXSlbQ0BIXShbQ0gzXSlbTkhdW0NIMl1bQ0gyXU4yQyg9TylbQ0gyXVtOSF1DMj1P

> <s_epik_cmdline>
J2VwaWtfcHl0aG9uJywgJy1waCcsICc3LjAnLCAnLXRuJywgJzgnLCAnLW1hJywgJzIwMCcsICctbWV0YWxfYmluZGluZycsICctaW1hZScsICc8aW5maWxlLm1hZT4nLCAnLW9tYWUnLCAnPG91dGZpbGUubWFlPic=

> <r_lp_tautomer_probability>
1

> <r_epik_Ionization_Penalty>
5.18149

> <r_epik_Ionization_Penalty_Charging>
5.18148

> <r_epik_Ionization_Penalty_Neutral>
9.83265e-06

> <r_epik_State_Penalty>
5.18201

> <r_epik_Charging_Adjusted_Penalty>
10.3635

> <i_epik_Tot_Q>
0

> <i_epik_Tot_abs_Q>
2

> <r_epik_Metal_State_Penalty>
1.25422

> <b_epik_Metal_Only>
1

> <s_lp_Force_Field>
OPLS_2005

> <r_lp_Energy>
16.3237

> <b_lp_Chiralities_Consistent>
1

> <s_lp_Variant>
AV-unprocessed.smi:3330-11

> <Gold.Version>
5.8.1

> <Gold.Id.Protein>
6NUR|6NUR_protein|mol2

> <Gold.PLP.Fitness>
48.9278

> <Gold.PLP.PLP>
-26.0419

> <Gold.PLP.part.hbond>
-5.0000

> <Gold.PLP.part.metal>
0.0000

> <Gold.PLP.part.buried>
0.5074

> <Gold.PLP.part.nonpolar>
-21.5910

> <Gold.PLP.part.repulsive>
0.2346

> <Gold.PLP.ligand.clash>
0.0000

> <Gold.PLP.ligand.torsion>
1.3089

> <Gold.PLP.Chemscore.Hbond>
6.6503

> <Gold.PLP.Chemscore.CHOScore>
1.8012

> <Gold.PLP.Chemscore.Metal>
0.0000

> <Gold.Chemscore.Hbonds>
donor molecule, donor type, donor heavy atom, donor atom, acceptor molecule, acceptor atom, score
      L1  H     3    24       P1  7948  2.00
      L1  H     3    38       P1  7957  1.00
      P1  H  7989  7998       L1    12  0.67
      P1  H  7997  8008       L1    10  2.00
      P1  H 10752 10765       L1     8  0.76
      L1  C    16    35       P1 10171  0.75
      L1  C    16    35       P1 10175  1.00

> <Gold.PLP.Chemscore.Internal.Correction>
0.1493

> <Gold.Rescore>
     Score         DG    S(hbond)    S(metal)    S(lipo)     H(rot)  DE(clash)    DE(int)     intcor
     16.13     -18.44       4.08        0.00      51.01       2.59       0.40       1.91       ----

> <Gold.Chemscore.Fitness>
16.1332

> <Gold.Chemscore.DG>
-18.4377

> <Gold.Chemscore.ZeroCoef>
-5.4800

> <Gold.Chemscore.Hbond>
4.0781

> <Gold.Chemscore.Metal>
0.0000

> <Gold.Chemscore.Lipo>
51.0074

> <Gold.Chemscore.Internal_Hbond>
0.0000

> <Gold.Chemscore.DEClash>
0.3980

> <Gold.Chemscore.DEInternal>
1.9065

> <Gold.Chemscore.Rot>
2.5903

> <Gold.Chemscore.Internal.Correction>
   9.000000E+99

> <Gold.Chemscore.Hbonds>
donor molecule, donor type, donor heavy atom, donor atom, acceptor molecule, acceptor atom, score
      L1  H     3    24       P1  7948  0.99
      L1  H     3    38       P1  7957  0.99
      P1  H  7989  7998       L1    12  0.56
      P1  H  7997  8008       L1    10  0.45
      P1  H 10752 10765       L1     8  0.71

> <Gold.Chemscore.Hbond.Weighted>
-13.6209

> <Gold.Chemscore.Metal.Weighted>
-0.0000

> <Gold.Chemscore.Lipo.Weighted>
-5.9679

> <Gold.Chemscore.Internal_Hbond.Weighted>
0.0000

> <Gold.Chemscore.DEClash.Weighted>
0.3980

> <Gold.Chemscore.DEInternal.Weighted>
1.9065

> <Gold.Chemscore.Rot.Weighted>
6.6311

> <Gold.Chemscore.Internal.Correction.Weighted>
   9.000000E+99

> <Gold.Protein.RotatedTorsions>
[ 6907 6896 6895 6894 ] final   -5.23 input  -60.11 | X-H torsion
[ 7974 7965 7964 7962 ] final  139.28 input  175.53 | X-H torsion
[ 8008 7997 7996 7995 ] final  -70.53 input   59.86 | X-H torsion
[ 10167 10162 10161 10158 ] final   24.43 input  -65.29 | X-H torsion
[ 10718 10713 10712 10709 ] final  145.28 input   66.30 | X-H torsion
[ 10763 10752 10751 10750 ] final -166.44 input  -60.55 | X-H torsion
[ 11005 11000 10999 10996 ] final   20.62 input  -57.11 | X-H torsion

> <Gold.Protein.ActiveResidues>
 VAL166  LYS551  ARG553  GLY616  TRP617  ASP618  TYR619  PRO620  LYS621  CYS622 
 ASP623  PHE694  ASN695  SER759  ASP760  ASP761  ALA762  ILE779  LEU786  VAL792 
 PHE793  MET794  SER795  GLU796  ALA797  LYS798  CYS799  TRP800  GLU811  SER814 

> <Gold.Protein.RotatedAtoms>
  151.4850  135.1054  159.9787 H   0  0  0  0  0  0  0  0  0  0  0  0  # atno 6907 bound_to 6896
  152.4764  133.8145  159.7031 H   0  0  0  0  0  0  0  0  0  0  0  0  # atno 6908 bound_to 6896
  150.8805  133.7317  159.2960 H   0  0  0  0  0  0  0  0  0  0  0  0  # atno 6909 bound_to 6896
  144.9293  139.5067  143.5625 H   0  0  0  0  0  0  0  0  0  0  0  0  # atno 7974 bound_to 7965
  154.5019  140.0832  156.7815 H   0  0  0  0  0  0  0  0  0  0  0  0  # atno 8008 bound_to 7997
  155.3983  140.3436  155.4237 H   0  0  0  0  0  0  0  0  0  0  0  0  # atno 8009 bound_to 7997
  156.1467  140.1546  156.8823 H   0  0  0  0  0  0  0  0  0  0  0  0  # atno 8010 bound_to 7997
  140.5189  144.0036  150.6407 H   0  0  0  0  0  0  0  0  0  0  0  0  # atno 10167 bound_to 10162
  157.3472  131.0945  151.1031 H   0  0  0  0  0  0  0  0  0  0  0  0  # atno 10718 bound_to 10713
  154.6832  135.2958  154.9584 H   0  0  0  0  0  0  0  0  0  0  0  0  # atno 10763 bound_to 10752
  154.0571  135.6636  153.4811 H   0  0  0  0  0  0  0  0  0  0  0  0  # atno 10764 bound_to 10752
  153.0561  135.5143  154.7886 H   0  0  0  0  0  0  0  0  0  0  0  0  # atno 10765 bound_to 10752
  140.4006  134.1723  155.7664 H   0  0  0  0  0  0  0  0  0  0  0  0  # atno 11005 bound_to 11000
  146.3240  139.8231  142.8923 LP  0  0  0  0  0  0  0  0  0  0  0  0  # atno 17320 bound_to 7965
  145.3168  141.0234  143.3523 LP  0  0  0  0  0  0  0  0  0  0  0  0  # atno 17321 bound_to 7965
  140.3380  143.3037  152.0618 LP  0  0  0  0  0  0  0  0  0  0  0  0  # atno 17342 bound_to 10162
  139.4917  144.6463  151.6772 LP  0  0  0  0  0  0  0  0  0  0  0  0  # atno 17343 bound_to 10162
  157.2221  130.6486  149.5815 LP  0  0  0  0  0  0  0  0  0  0  0  0  # atno 17370 bound_to 10713
  155.9716  130.4626  150.6151 LP  0  0  0  0  0  0  0  0  0  0  0  0  # atno 17371 bound_to 10713
  141.1858  133.8315  157.1091 LP  0  0  0  0  0  0  0  0  0  0  0  0  # atno 17394 bound_to 11000
  140.0339  134.9887  157.0834 LP  0  0  0  0  0  0  0  0  0  0  0  0  # atno 17395 bound_to 11000

$$$$
