AV-unprocessed.smi:3030|AV-procd|sdf|11537|dock9
  -GOLD-   2272016483D 1   1.00000     0.00000
 Structure written by MMmdl.
 52 53  0  0  0  0  0  0  0  0  1 V2000
  148.0346  131.4221  161.4006 C   0  0  0  0  0  0  0  0  0  0  0  0
  148.4913  132.4411  160.3508 C   0  0  0  0  0  0  0  0  0  0  0  0
  148.1409  133.8020  160.7313 N   0  0  0  0  0  0  0  0  0  0  0  0
  147.2605  134.0573  161.7777 C   0  0  0  0  0  0  0  0  0  0  0  0
  146.8520  135.2898  162.1368 C   0  0  0  0  0  0  0  0  0  0  0  0
  147.3495  136.4634  161.3904 C   0  0  0  0  0  0  0  0  0  0  0  0
  146.9941  137.6036  161.6884 O   0  0  0  0  0  0  0  0  0  0  0  0
  148.2916  136.1904  160.2731 C   0  0  0  0  0  0  0  0  0  0  0  0
  148.7526  137.3076  159.5580 N   0  0  0  0  0  0  0  0  0  0  0  0
  149.9541  137.5126  158.9882 C   0  0  0  0  0  0  0  0  0  0  0  0
  150.9134  136.7429  159.0332 O   0  0  0  0  0  0  0  0  0  0  0  0
  149.9870  138.6959  158.3596 N   0  0  0  0  0  0  0  0  0  0  0  0
  151.1354  139.2512  157.6409 C   0  0  2  0  0  0  0  0  0  0  0  0
  152.2018  139.7591  158.6337 C   0  0  0  0  0  0  0  0  0  0  0  0
  151.7520  141.0214  159.3910 C   0  0  1  0  0  0  0  0  0  0  0  0
  152.8364  141.5111  160.3612 C   0  0  0  0  0  0  0  0  0  0  0  0
  151.3548  142.1161  158.3887 C   0  0  0  0  0  0  0  0  0  0  0  0
  150.2692  141.6301  157.4156 C   0  0  0  0  0  0  0  0  0  0  0  0
  150.6933  140.3571  156.6399 C   0  0  2  0  0  0  0  0  0  0  0  0
  149.6077  139.8829  155.6242 C   0  0  0  0  0  0  0  0  0  0  0  0
  150.0764  138.6882  154.7705 C   0  0  0  0  0  0  0  0  0  0  0  0
  149.1407  141.0102  154.6834 C   0  0  0  0  0  0  0  0  0  0  0  0
  148.6150  134.8979  160.0133 C   0  0  0  0  0  0  0  0  0  0  0  0
  148.3035  130.4095  161.1002 H   0  0  0  0  0  0  0  0  0  0  0  0
  146.9532  131.4537  161.5358 H   0  0  0  0  0  0  0  0  0  0  0  0
  148.5003  131.6171  162.3671 H   0  0  0  0  0  0  0  0  0  0  0  0
  149.5706  132.3699  160.2098 H   0  0  0  0  0  0  0  0  0  0  0  0
  148.0416  132.2050  159.3856 H   0  0  0  0  0  0  0  0  0  0  0  0
  146.9217  133.1743  162.3001 H   0  0  0  0  0  0  0  0  0  0  0  0
  146.1679  135.4402  162.9592 H   0  0  0  0  0  0  0  0  0  0  0  0
  148.0867  138.0634  159.4873 H   0  0  0  0  0  0  0  0  0  0  0  0
  149.1520  139.2630  158.3779 H   0  0  0  0  0  0  0  0  0  0  0  0
  151.6087  138.4521  157.0694 H   0  0  0  0  0  0  0  0  0  0  0  0
  152.4573  138.9692  159.3414 H   0  0  0  0  0  0  0  0  0  0  0  0
  153.1190  139.9776  158.0848 H   0  0  0  0  0  0  0  0  0  0  0  0
  150.8723  140.7716  159.9858 H   0  0  0  0  0  0  0  0  0  0  0  0
  153.7516  141.7781  159.8318 H   0  0  0  0  0  0  0  0  0  0  0  0
  153.0861  140.7401  161.0906 H   0  0  0  0  0  0  0  0  0  0  0  0
  152.5024  142.3900  160.9131 H   0  0  0  0  0  0  0  0  0  0  0  0
  150.9960  142.9968  158.9228 H   0  0  0  0  0  0  0  0  0  0  0  0
  152.2314  142.4358  157.8234 H   0  0  0  0  0  0  0  0  0  0  0  0
  149.3450  141.4417  157.9634 H   0  0  0  0  0  0  0  0  0  0  0  0
  150.0565  142.4474  156.7280 H   0  0  0  0  0  0  0  0  0  0  0  0
  151.5775  140.6228  156.0578 H   0  0  0  0  0  0  0  0  0  0  0  0
  148.7301  139.5549  156.1827 H   0  0  0  0  0  0  0  0  0  0  0  0
  151.0010  138.9185  154.2404 H   0  0  0  0  0  0  0  0  0  0  0  0
  149.3274  138.4178  154.0258 H   0  0  0  0  0  0  0  0  0  0  0  0
  150.2463  137.7965  155.3734 H   0  0  0  0  0  0  0  0  0  0  0  0
  149.9815  141.4626  154.1570 H   0  0  0  0  0  0  0  0  0  0  0  0
  148.6129  141.7981  155.2192 H   0  0  0  0  0  0  0  0  0  0  0  0
  148.4465  140.6327  153.9321 H   0  0  0  0  0  0  0  0  0  0  0  0
  149.2721  134.6086  159.2086 H   0  0  0  0  0  0  0  0  0  0  0  0
  1  2  1  0  0  0  0
  1 24  1  0  0  0  0
  1 25  1  0  0  0  0
  1 26  1  0  0  0  0
  2  3  1  0  0  0  0
  2 27  1  0  0  0  0
  2 28  1  0  0  0  0
  3 23  1  0  0  0  0
  3  4  1  0  0  0  0
  4  5  2  0  0  0  0
  4 29  1  0  0  0  0
  5  6  1  0  0  0  0
  5 30  1  0  0  0  0
  6  7  2  0  0  0  0
  6  8  1  0  0  0  0
  8  9  1  0  0  0  0
  8 23  2  0  0  0  0
  9 10  1  0  0  0  0
  9 31  1  0  0  0  0
 10 11  2  0  0  0  0
 10 12  1  0  0  0  0
 12 13  1  0  0  0  0
 12 32  1  0  0  0  0
 13 19  1  0  0  0  0
 13 14  1  0  0  0  0
 13 33  1  0  0  0  0
 14 15  1  0  0  0  0
 14 34  1  0  0  0  0
 14 35  1  0  0  0  0
 15 16  1  0  0  0  0
 15 17  1  0  0  0  0
 15 36  1  0  0  0  0
 16 37  1  0  0  0  0
 16 38  1  0  0  0  0
 16 39  1  0  0  0  0
 17 18  1  0  0  0  0
 17 40  1  0  0  0  0
 17 41  1  0  0  0  0
 18 19  1  0  0  0  0
 18 42  1  0  0  0  0
 18 43  1  0  0  0  0
 19 20  1  0  0  0  0
 19 44  1  0  0  0  0
 20 21  1  0  0  0  0
 20 22  1  0  0  0  0
 20 45  1  0  0  0  0
 21 46  1  0  0  0  0
 21 47  1  0  0  0  0
 21 48  1  0  0  0  0
 22 49  1  0  0  0  0
 22 50  1  0  0  0  0
 22 51  1  0  0  0  0
 23 52  1  0  0  0  0
M  END
> <s_m_source_file>
AV-unprocessed.smi

> <i_m_source_file_index>
3030

> <i_lp_mmshare_version>
43012

> <i_f3d_flags>
0

> <s_epik_input>
W0NIM11bQ0gyXW4xW2NIXVtjSF1jKD1PKWMoW2NIXTEpW05IXUMoPU8pW05IXVtDQEBIXTJbQ0gyXVtDQEBIXShbQ0gzXSlbQ0gyXVtDSDJdW0NASF0yW0NIXShbQ0gzXSlbQ0gzXQ==

> <s_epik_cmdline>
J2VwaWtfcHl0aG9uJywgJy1waCcsICc3LjAnLCAnLXRuJywgJzgnLCAnLW1hJywgJzIwMCcsICctbWV0YWxfYmluZGluZycsICctaW1hZScsICc8aW5maWxlLm1hZT4nLCAnLW9tYWUnLCAnPG91dGZpbGUubWFlPic=

> <r_lp_tautomer_probability>
1

> <r_epik_Ionization_Penalty>
0.00147933

> <r_epik_Ionization_Penalty_Charging>
0.00145753

> <r_epik_Ionization_Penalty_Neutral>
2.17987e-05

> <r_epik_State_Penalty>
0.00097457

> <r_epik_Charging_Adjusted_Penalty>
0.0024321

> <i_epik_Tot_Q>
0

> <i_epik_Tot_abs_Q>
0

> <r_epik_Metal_State_Penalty>
-0

> <b_epik_Metal_Only>
0

> <s_lp_Force_Field>
OPLS_2005

> <r_lp_Energy>
9.06052

> <b_lp_Chiralities_Consistent>
1

> <s_lp_Variant>
AV-unprocessed.smi:3030-5

> <Gold.Version>
5.8.1

> <Gold.Id.Protein>
6NUR|6NUR_protein|mol2

> <Gold.PLP.Fitness>
45.4189

> <Gold.PLP.PLP>
-39.3764

> <Gold.PLP.part.hbond>
-2.9541

> <Gold.PLP.part.metal>
0.0000

> <Gold.PLP.part.buried>
-4.2911

> <Gold.PLP.part.nonpolar>
-32.4701

> <Gold.PLP.part.repulsive>
0.3693

> <Gold.PLP.ligand.clash>
0.0000

> <Gold.PLP.ligand.torsion>
0.6019

> <Gold.PLP.Chemscore.Hbond>
2.3920

> <Gold.PLP.Chemscore.CHOScore>
0.0000

> <Gold.PLP.Chemscore.Metal>
0.0000

> <Gold.Chemscore.Hbonds>
donor molecule, donor type, donor heavy atom, donor atom, acceptor molecule, acceptor atom, score
      P1  H  6896  6907       L1    11  1.00
      P1  H  6931  6943       L1     7  0.30
      P1  H  6934  6947       L1     7  0.88

> <Gold.PLP.Chemscore.Internal.Correction>
0.0704

> <Gold.Rescore>
     Score         DG    S(hbond)    S(metal)    S(lipo)     H(rot)  DE(clash)    DE(int)     intcor
     20.09     -20.68       2.38        0.00      89.82       1.27       0.00       0.58       ----

> <Gold.Chemscore.Fitness>
20.0930

> <Gold.Chemscore.DG>
-20.6763

> <Gold.Chemscore.ZeroCoef>
-5.4800

> <Gold.Chemscore.Hbond>
2.3757

> <Gold.Chemscore.Metal>
0.0000

> <Gold.Chemscore.Lipo>
89.8195

> <Gold.Chemscore.Internal_Hbond>
0.0000

> <Gold.Chemscore.DEClash>
0.0000

> <Gold.Chemscore.DEInternal>
0.5833

> <Gold.Chemscore.Rot>
1.2685

> <Gold.Chemscore.Internal.Correction>
   9.000000E+99

> <Gold.Chemscore.Hbonds>
donor molecule, donor type, donor heavy atom, donor atom, acceptor molecule, acceptor atom, score
      P1  H  6896  6907       L1    11  0.97
      P1  H  6931  6943       L1     7  0.03
      P1  H  6934  6947       L1     7  0.86

> <Gold.Chemscore.Hbond.Weighted>
-7.9348

> <Gold.Chemscore.Metal.Weighted>
-0.0000

> <Gold.Chemscore.Lipo.Weighted>
-10.5089

> <Gold.Chemscore.Internal_Hbond.Weighted>
0.0000

> <Gold.Chemscore.DEClash.Weighted>
0.0000

> <Gold.Chemscore.DEInternal.Weighted>
0.5833

> <Gold.Chemscore.Rot.Weighted>
3.2474

> <Gold.Chemscore.Internal.Correction.Weighted>
   9.000000E+99

> <Gold.Protein.RotatedTorsions>
[ 6907 6896 6895 6894 ] final  -32.61 input  -60.11 | X-H torsion
[ 7974 7965 7964 7962 ] final  159.71 input  175.53 | X-H torsion
[ 8008 7997 7996 7995 ] final  -37.05 input   59.86 | X-H torsion
[ 10167 10162 10161 10158 ] final -161.59 input  -65.29 | X-H torsion
[ 10718 10713 10712 10709 ] final -105.12 input   66.30 | X-H torsion
[ 10763 10752 10751 10750 ] final -100.68 input  -60.55 | X-H torsion
[ 11005 11000 10999 10996 ] final   -6.22 input  -57.11 | X-H torsion

> <Gold.Protein.ActiveResidues>
 VAL166  LYS551  ARG553  GLY616  TRP617  ASP618  TYR619  PRO620  LYS621  CYS622 
 ASP623  PHE694  ASN695  SER759  ASP760  ASP761  ALA762  ILE779  LEU786  VAL792 
 PHE793  MET794  SER795  GLU796  ALA797  LYS798  CYS799  TRP800  GLU811  SER814 

> <Gold.Protein.RotatedAtoms>
  151.0765  134.9831  159.8334 H   0  0  0  0  0  0  0  0  0  0  0  0  # atno 6907 bound_to 6896
  152.5414  134.2235  159.8807 H   0  0  0  0  0  0  0  0  0  0  0  0  # atno 6908 bound_to 6896
  151.2262  133.4431  159.2636 H   0  0  0  0  0  0  0  0  0  0  0  0  # atno 6909 bound_to 6896
  144.7775  139.7656  143.6273 H   0  0  0  0  0  0  0  0  0  0  0  0  # atno 7974 bound_to 7965
  154.4061  140.1614  156.2474 H   0  0  0  0  0  0  0  0  0  0  0  0  # atno 8008 bound_to 7997
  155.9149  140.3425  155.6104 H   0  0  0  0  0  0  0  0  0  0  0  0  # atno 8009 bound_to 7997
  155.7292  140.0778  157.2287 H   0  0  0  0  0  0  0  0  0  0  0  0  # atno 8010 bound_to 7997
  139.6454  144.0182  152.2123 H   0  0  0  0  0  0  0  0  0  0  0  0  # atno 10167 bound_to 10162
  156.0333  130.5548  150.7494 H   0  0  0  0  0  0  0  0  0  0  0  0  # atno 10718 bound_to 10713
  154.7598  135.4926  153.9443 H   0  0  0  0  0  0  0  0  0  0  0  0  # atno 10763 bound_to 10752
  153.1238  135.6738  153.9299 H   0  0  0  0  0  0  0  0  0  0  0  0  # atno 10764 bound_to 10752
  153.9023  135.3108  155.3427 H   0  0  0  0  0  0  0  0  0  0  0  0  # atno 10765 bound_to 10752
  140.6996  133.9001  155.8674 H   0  0  0  0  0  0  0  0  0  0  0  0  # atno 11005 bound_to 11000
  146.1964  139.5233  142.9772 LP  0  0  0  0  0  0  0  0  0  0  0  0  # atno 17320 bound_to 7965
  145.6143  141.0334  143.1949 LP  0  0  0  0  0  0  0  0  0  0  0  0  # atno 17321 bound_to 7965
  139.9882  144.6380  150.7838 LP  0  0  0  0  0  0  0  0  0  0  0  0  # atno 17342 bound_to 10162
  140.7512  143.2968  151.3184 LP  0  0  0  0  0  0  0  0  0  0  0  0  # atno 17343 bound_to 10162
  157.5042  131.0921  151.0277 LP  0  0  0  0  0  0  0  0  0  0  0  0  # atno 17370 bound_to 10713
  157.0650  130.5841  149.5392 LP  0  0  0  0  0  0  0  0  0  0  0  0  # atno 17371 bound_to 10713
  141.0174  134.0936  157.4157 LP  0  0  0  0  0  0  0  0  0  0  0  0  # atno 17394 bound_to 11000
  139.8900  135.0109  156.6713 LP  0  0  0  0  0  0  0  0  0  0  0  0  # atno 17395 bound_to 11000

$$$$
