AV-unprocessed.smi:1220|AV-procd|sdf|5115|dock4
  -GOLD-   22720 4173D 1   1.00000     0.00000
 Structure written by MMmdl.
 35 36  0  0  0  0  0  0  0  0  1 V2000
  149.7896  141.7434  155.2733 C   0  0  0  0  0  0  0  0  0  0  0  0
  150.7871  141.2075  156.3135 C   0  0  1  0  0  0  0  0  0  0  0  0
  150.5532  141.7823  157.7288 C   0  0  0  0  0  0  0  0  0  0  0  0
  151.4934  142.8316  158.0778 N   0  0  0  0  0  0  0  0  0  0  0  0
  151.6215  144.0882  157.5244 C   0  0  0  0  0  0  0  0  0  0  0  0
  152.6363  144.7205  158.1837 C   0  0  0  0  0  0  0  0  0  0  0  0
  153.0692  143.7593  159.1395 C   0  0  0  0  0  0  0  0  0  0  0  0
  152.3812  142.6308  159.0755 N   0  0  0  0  0  0  0  0  0  0  0  0
  150.7098  139.7497  156.3434 N   0  0  0  0  0  0  0  0  0  0  0  0
  151.6711  138.9118  155.9241 C   0  0  0  0  0  0  0  0  0  0  0  0
  152.7425  139.2946  155.4532 O   0  0  0  0  0  0  0  0  0  0  0  0
  151.3784  137.4128  156.0644 C   0  0  2  0  0  0  0  0  0  0  0  0
  150.9928  136.7712  154.7142 C   0  0  0  0  0  0  0  0  0  0  0  0
  150.4118  135.3807  154.9872 C   0  0  0  0  0  0  0  0  0  0  0  0
  149.5034  135.5315  156.5693 S   0  0  0  0  0  0  0  0  0  0  0  0
  148.0728  135.7306  156.2929 O   0  0  0  0  0  0  0  0  0  0  0  0
  149.9579  134.4754  157.4864 O   0  0  0  0  0  0  0  0  0  0  0  0
  150.2398  137.1358  157.0640 C   0  0  0  0  0  0  0  0  0  0  0  0
  149.8748  142.8241  155.1567 H   0  0  0  0  0  0  0  0  0  0  0  0
  148.7611  141.5194  155.5581 H   0  0  0  0  0  0  0  0  0  0  0  0
  149.9687  141.2990  154.2937 H   0  0  0  0  0  0  0  0  0  0  0  0
  151.7871  141.4924  155.9808 H   0  0  0  0  0  0  0  0  0  0  0  0
  149.5433  142.1871  157.8078 H   0  0  0  0  0  0  0  0  0  0  0  0
  150.6311  140.9953  158.4804 H   0  0  0  0  0  0  0  0  0  0  0  0
  150.9888  144.4233  156.7157 H   0  0  0  0  0  0  0  0  0  0  0  0
  153.0113  145.7185  158.0111 H   0  0  0  0  0  0  0  0  0  0  0  0
  153.8563  143.8478  159.8738 H   0  0  0  0  0  0  0  0  0  0  0  0
  149.8609  139.3479  156.7144 H   0  0  0  0  0  0  0  0  0  0  0  0
  152.2726  136.9031  156.4281 H   0  0  0  0  0  0  0  0  0  0  0  0
  150.2325  137.3756  154.2166 H   0  0  0  0  0  0  0  0  0  0  0  0
  151.8461  136.7135  154.0376 H   0  0  0  0  0  0  0  0  0  0  0  0
  149.7450  135.0308  154.1991 H   0  0  0  0  0  0  0  0  0  0  0  0
  151.2085  134.6488  155.1232 H   0  0  0  0  0  0  0  0  0  0  0  0
  150.5951  137.0717  158.0926 H   0  0  0  0  0  0  0  0  0  0  0  0
  149.4547  137.8920  157.0185 H   0  0  0  0  0  0  0  0  0  0  0  0
  1  2  1  0  0  0  0
  1 19  1  0  0  0  0
  1 20  1  0  0  0  0
  1 21  1  0  0  0  0
  2  3  1  0  0  0  0
  2  9  1  0  0  0  0
  2 22  1  0  0  0  0
  3  4  1  0  0  0  0
  3 23  1  0  0  0  0
  3 24  1  0  0  0  0
  4  8  1  0  0  0  0
  4  5  1  0  0  0  0
  5  6  2  0  0  0  0
  5 25  1  0  0  0  0
  6  7  1  0  0  0  0
  6 26  1  0  0  0  0
  7  8  2  0  0  0  0
  7 27  1  0  0  0  0
  9 10  1  0  0  0  0
  9 28  1  0  0  0  0
 10 11  2  0  0  0  0
 10 12  1  0  0  0  0
 12 18  1  0  0  0  0
 12 13  1  0  0  0  0
 12 29  1  0  0  0  0
 13 14  1  0  0  0  0
 13 30  1  0  0  0  0
 13 31  1  0  0  0  0
 14 15  1  0  0  0  0
 14 32  1  0  0  0  0
 14 33  1  0  0  0  0
 15 16  2  0  0  0  0
 15 17  2  0  0  0  0
 15 18  1  0  0  0  0
 18 34  1  0  0  0  0
 18 35  1  0  0  0  0
M  END
> <s_m_source_file>
AV-unprocessed.smi

> <i_m_source_file_index>
1220

> <i_lp_mmshare_version>
43012

> <i_f3d_flags>
0

> <s_epik_input>
bjFbY0hdW2NIXVtjSF1uMVtDSDJdW0NAQEhdKFtDSDNdKVtOSF1DKD1PKVtDQEBIXShbQ0gyXTIpW0NIMl1bQ0gyXVMyKD1PKT1P

> <s_epik_cmdline>
J2VwaWtfcHl0aG9uJywgJy1waCcsICc3LjAnLCAnLXRuJywgJzgnLCAnLW1hJywgJzIwMCcsICctbWV0YWxfYmluZGluZycsICctaW1hZScsICc8aW5maWxlLm1hZT4nLCAnLW9tYWUnLCAnPG91dGZpbGUubWFlPic=

> <r_lp_tautomer_probability>
1

> <r_epik_Ionization_Penalty>
0.000293905

> <r_epik_Ionization_Penalty_Charging>
0

> <r_epik_Ionization_Penalty_Neutral>
0.000293905

> <r_epik_State_Penalty>
-0

> <r_epik_Charging_Adjusted_Penalty>
0

> <i_epik_Tot_Q>
0

> <i_epik_Tot_abs_Q>
0

> <r_epik_Metal_State_Penalty>
-0

> <b_epik_Metal_Only>
0

> <s_lp_Force_Field>
OPLS_2005

> <r_lp_Energy>
2.06683

> <b_lp_Chiralities_Consistent>
1

> <s_lp_Variant>
AV-unprocessed.smi:1220-2

> <Gold.Version>
5.8.1

> <Gold.Id.Protein>
6NUR|6NUR_protein|mol2

> <Gold.PLP.Fitness>
39.0347

> <Gold.PLP.PLP>
-32.7838

> <Gold.PLP.part.hbond>
-2.0000

> <Gold.PLP.part.metal>
0.0000

> <Gold.PLP.part.buried>
-3.8904

> <Gold.PLP.part.nonpolar>
-27.9205

> <Gold.PLP.part.repulsive>
0.0836

> <Gold.PLP.ligand.clash>
0.0000

> <Gold.PLP.ligand.torsion>
1.1810

> <Gold.PLP.Chemscore.Hbond>
1.8640

> <Gold.PLP.Chemscore.CHOScore>
1.0000

> <Gold.PLP.Chemscore.Metal>
0.0000

> <Gold.Chemscore.Hbonds>
donor molecule, donor type, donor heavy atom, donor atom, acceptor molecule, acceptor atom, score
      P1  H  6896  6909       L1    17  0.86
      P1  H  7997  8009       L1    11  1.00
      L1  C     5    25       P1  8028  1.00

> <Gold.PLP.Chemscore.Internal.Correction>
0.0208

> <Gold.Rescore>
     Score         DG    S(hbond)    S(metal)    S(lipo)     H(rot)  DE(clash)    DE(int)     intcor
     15.73     -16.64       1.96        0.00      77.75       1.75       0.02       0.90       ----

> <Gold.Chemscore.Fitness>
15.7256

> <Gold.Chemscore.DG>
-16.6406

> <Gold.Chemscore.ZeroCoef>
-5.4800

> <Gold.Chemscore.Hbond>
1.9562

> <Gold.Chemscore.Metal>
0.0000

> <Gold.Chemscore.Lipo>
77.7488

> <Gold.Chemscore.Internal_Hbond>
0.0000

> <Gold.Chemscore.DEClash>
0.0174

> <Gold.Chemscore.DEInternal>
0.8977

> <Gold.Chemscore.Rot>
1.7460

> <Gold.Chemscore.Internal.Correction>
   9.000000E+99

> <Gold.Chemscore.Hbonds>
donor molecule, donor type, donor heavy atom, donor atom, acceptor molecule, acceptor atom, score
      P1  H  6896  6909       L1    17  0.79
      P1  H  7997  8009       L1    11  0.99

> <Gold.Chemscore.Hbond.Weighted>
-6.5337

> <Gold.Chemscore.Metal.Weighted>
-0.0000

> <Gold.Chemscore.Lipo.Weighted>
-9.0966

> <Gold.Chemscore.Internal_Hbond.Weighted>
0.0000

> <Gold.Chemscore.DEClash.Weighted>
0.0174

> <Gold.Chemscore.DEInternal.Weighted>
0.8977

> <Gold.Chemscore.Rot.Weighted>
4.4697

> <Gold.Chemscore.Internal.Correction.Weighted>
   9.000000E+99

> <Gold.Protein.RotatedTorsions>
[ 6907 6896 6895 6894 ] final   10.13 input  -60.11 | X-H torsion
[ 7974 7965 7964 7962 ] final  -49.24 input  175.53 | X-H torsion
[ 8008 7997 7996 7995 ] final -153.85 input   59.86 | X-H torsion
[ 10167 10162 10161 10158 ] final -138.49 input  -65.29 | X-H torsion
[ 10718 10713 10712 10709 ] final   25.61 input   66.30 | X-H torsion
[ 10763 10752 10751 10750 ] final  121.62 input  -60.55 | X-H torsion
[ 11005 11000 10999 10996 ] final   88.62 input  -57.11 | X-H torsion

> <Gold.Protein.ActiveResidues>
 VAL166  LYS551  ARG553  GLY616  TRP617  ASP618  TYR619  PRO620  LYS621  CYS622 
 ASP623  PHE694  ASN695  SER759  ASP760  ASP761  ALA762  ILE779  LEU786  VAL792 
 PHE793  MET794  SER795  GLU796  ALA797  LYS798  CYS799  TRP800  GLU811  SER814 

> <Gold.Protein.RotatedAtoms>
  151.7333  135.0870  160.0303 H   0  0  0  0  0  0  0  0  0  0  0  0  # atno 6907 bound_to 6896
  152.3527  133.6195  159.5965 H   0  0  0  0  0  0  0  0  0  0  0  0  # atno 6908 bound_to 6896
  150.7550  133.9465  159.3514 H   0  0  0  0  0  0  0  0  0  0  0  0  # atno 6909 bound_to 6896
  145.9427  140.7647  142.9544 H   0  0  0  0  0  0  0  0  0  0  0  0  # atno 7974 bound_to 7965
  155.6773  140.0740  157.2498 H   0  0  0  0  0  0  0  0  0  0  0  0  # atno 8008 bound_to 7997
  154.4112  140.1688  156.1995 H   0  0  0  0  0  0  0  0  0  0  0  0  # atno 8009 bound_to 7997
  155.9565  140.3373  155.6456 H   0  0  0  0  0  0  0  0  0  0  0  0  # atno 8010 bound_to 7997
  139.8473  143.7244  152.2660 H   0  0  0  0  0  0  0  0  0  0  0  0  # atno 10167 bound_to 10162
  157.1956  130.6866  149.6167 H   0  0  0  0  0  0  0  0  0  0  0  0  # atno 10718 bound_to 10713
  153.6170  135.3420  155.2998 H   0  0  0  0  0  0  0  0  0  0  0  0  # atno 10763 bound_to 10752
  154.8607  135.4264  154.2249 H   0  0  0  0  0  0  0  0  0  0  0  0  # atno 10764 bound_to 10752
  153.3112  135.7032  153.7186 H   0  0  0  0  0  0  0  0  0  0  0  0  # atno 10765 bound_to 10752
  139.8892  134.8499  156.3026 H   0  0  0  0  0  0  0  0  0  0  0  0  # atno 11005 bound_to 11000
  144.6782  140.2306  143.7356 LP  0  0  0  0  0  0  0  0  0  0  0  0  # atno 17320 bound_to 7965
  145.8278  139.2072  143.1900 LP  0  0  0  0  0  0  0  0  0  0  0  0  # atno 17321 bound_to 7965
  139.7500  144.7537  151.0521 LP  0  0  0  0  0  0  0  0  0  0  0  0  # atno 17342 bound_to 10162
  140.7791  143.4871  150.9941 LP  0  0  0  0  0  0  0  0  0  0  0  0  # atno 17343 bound_to 10162
  155.9706  130.4600  150.6056 LP  0  0  0  0  0  0  0  0  0  0  0  0  # atno 17370 bound_to 10713
  157.3817  131.0782  151.1470 LP  0  0  0  0  0  0  0  0  0  0  0  0  # atno 17371 bound_to 10713
  140.9903  133.7213  156.0804 LP  0  0  0  0  0  0  0  0  0  0  0  0  # atno 17394 bound_to 11000
  140.7634  134.3914  157.5521 LP  0  0  0  0  0  0  0  0  0  0  0  0  # atno 17395 bound_to 11000

$$$$
