AV-unprocessed.smi:2094|AV-procd|sdf|8553|dock3
  -GOLD-   2272011273D 1   1.00000     0.00000
 Structure written by MMmdl.
 35 36  0  0  0  0  0  0  0  0  3 V2000
  151.2466  140.6490  155.6226 O   0  0  0  0  0  0  0  0  0  0  0  0
  151.9194  139.7317  156.0990 C   0  0  0  0  0  0  0  0  0  0  0  0
  152.0121  138.5660  155.4461 N   0  0  0  0  0  0  0  0  0  0  0  0
  151.3630  138.2655  154.1779 C   0  0  0  0  0  0  0  0  0  0  0  0
  149.8415  138.1639  154.3653 C   0  0  0  0  0  0  0  0  0  0  0  0
  149.3692  136.7567  154.3748 N   0  3  0  0  0  0  0  0  0  0  0  0
  147.9997  136.6266  154.9378 C   0  0  0  0  0  0  0  0  0  0  0  0
  147.4773  135.1855  154.8071 C   0  0  0  0  0  0  0  0  0  0  0  0
  148.4361  134.1899  155.4730 C   0  0  0  0  0  0  0  0  0  0  0  0
  149.8494  134.3642  154.9028 C   0  0  0  0  0  0  0  0  0  0  0  0
  150.3215  135.8223  155.0335 C   0  0  0  0  0  0  0  0  0  0  0  0
  152.6108  139.7605  157.2602 N   0  5  0  0  0  0  0  0  0  0  0  0
  152.3574  140.7172  158.1681 C   0  0  0  0  0  0  0  0  0  0  0  0
  153.1148  140.9109  159.2540 N   0  0  0  0  0  0  0  0  0  0  0  0
  152.6719  141.9616  160.0595 C   0  0  0  0  0  0  0  0  0  0  0  0
  151.5565  142.5884  159.5708 C   0  0  0  0  0  0  0  0  0  0  0  0
  151.0256  141.8730  158.0755 S   0  0  0  0  0  0  0  0  0  0  0  0
  152.5712  137.8386  155.8673 H   0  0  0  0  0  0  0  0  0  0  0  0
  151.5995  139.0494  153.4566 H   0  0  0  0  0  0  0  0  0  0  0  0
  151.7754  137.3336  153.7914 H   0  0  0  0  0  0  0  0  0  0  0  0
  149.5267  138.6680  155.2806 H   0  0  0  0  0  0  0  0  0  0  0  0
  149.3660  138.6974  153.5405 H   0  0  0  0  0  0  0  0  0  0  0  0
  148.0050  136.9329  155.9851 H   0  0  0  0  0  0  0  0  0  0  0  0
  147.3194  137.2993  154.4138 H   0  0  0  0  0  0  0  0  0  0  0  0
  146.4867  135.1053  155.2559 H   0  0  0  0  0  0  0  0  0  0  0  0
  147.3606  134.9327  153.7523 H   0  0  0  0  0  0  0  0  0  0  0  0
  148.4500  134.3546  156.5513 H   0  0  0  0  0  0  0  0  0  0  0  0
  148.0886  133.1682  155.3167 H   0  0  0  0  0  0  0  0  0  0  0  0
  150.5434  133.6999  155.4185 H   0  0  0  0  0  0  0  0  0  0  0  0
  149.8612  134.0684  153.8529 H   0  0  0  0  0  0  0  0  0  0  0  0
  151.3116  135.9110  154.5882 H   0  0  0  0  0  0  0  0  0  0  0  0
  150.4248  136.0895  156.0866 H   0  0  0  0  0  0  0  0  0  0  0  0
  153.2129  142.1950  160.9643 H   0  0  0  0  0  0  0  0  0  0  0  0
  151.0179  143.4217  159.9953 H   0  0  0  0  0  0  0  0  0  0  0  0
  149.3022  136.4754  153.4069 H   0  0  0  0  0  0  0  0  0  0  0  0
  1  2  2  0  0  0  0
  2  3  1  0  0  0  0
  2 12  1  0  0  0  0
  3  4  1  0  0  0  0
  3 18  1  0  0  0  0
  4  5  1  0  0  0  0
  4 19  1  0  0  0  0
  4 20  1  0  0  0  0
  5  6  1  0  0  0  0
  5 21  1  0  0  0  0
  5 22  1  0  0  0  0
  6 11  1  0  0  0  0
  6  7  1  0  0  0  0
  6 35  1  0  0  0  0
  7  8  1  0  0  0  0
  7 23  1  0  0  0  0
  7 24  1  0  0  0  0
  8  9  1  0  0  0  0
  8 25  1  0  0  0  0
  8 26  1  0  0  0  0
  9 10  1  0  0  0  0
  9 27  1  0  0  0  0
  9 28  1  0  0  0  0
 10 11  1  0  0  0  0
 10 29  1  0  0  0  0
 10 30  1  0  0  0  0
 11 31  1  0  0  0  0
 11 32  1  0  0  0  0
 12 13  1  0  0  0  0
 13 17  1  0  0  0  0
 13 14  2  0  0  0  0
 14 15  1  0  0  0  0
 15 16  2  0  0  0  0
 15 33  1  0  0  0  0
 16 17  1  0  0  0  0
 16 34  1  0  0  0  0
M  CHG  1   6   1
M  CHG  1  12  -1
M  END
> <s_m_source_file>
AV-unprocessed.smi

> <i_m_source_file_index>
2094

> <i_lp_mmshare_version>
43012

> <i_f3d_flags>
0

> <s_epik_input>
czFbY0hdW2NIXW5jMVtOSF1DKD1PKVtOSF1bQ0gyXVtDSDJdTjJbQ0gyXVtDSDJdW0NIMl1bQ0gyXVtDSDJdMg==

> <s_epik_cmdline>
J2VwaWtfcHl0aG9uJywgJy1waCcsICc3LjAnLCAnLXRuJywgJzgnLCAnLW1hJywgJzIwMCcsICctbWV0YWxfYmluZGluZycsICctaW1hZScsICc8aW5maWxlLm1hZT4nLCAnLW9tYWUnLCAnPG91dGZpbGUubWFlPic=

> <r_lp_tautomer_probability>
0.999

> <r_epik_Ionization_Penalty>
6.21931

> <r_epik_Ionization_Penalty_Charging>
5.38824

> <r_epik_Ionization_Penalty_Neutral>
0.831074

> <r_epik_State_Penalty>
5.38819

> <r_epik_Charging_Adjusted_Penalty>
10.7764

> <i_epik_Tot_Q>
0

> <i_epik_Tot_abs_Q>
2

> <r_epik_Metal_State_Penalty>
1.41404

> <b_epik_Metal_Only>
1

> <s_lp_Force_Field>
OPLS_2005

> <r_lp_Energy>
7.37815

> <b_lp_Chiralities_Consistent>
1

> <s_lp_Variant>
AV-unprocessed.smi:2094-2

> <Gold.Version>
5.8.1

> <Gold.Id.Protein>
6NUR|6NUR_protein|mol2

> <Gold.PLP.Fitness>
39.4251

> <Gold.PLP.PLP>
-26.3649

> <Gold.PLP.part.hbond>
-3.0000

> <Gold.PLP.part.metal>
0.0000

> <Gold.PLP.part.buried>
-3.3284

> <Gold.PLP.part.nonpolar>
-19.0423

> <Gold.PLP.part.repulsive>
0.1919

> <Gold.PLP.ligand.clash>
0.0000

> <Gold.PLP.ligand.torsion>
0.6192

> <Gold.PLP.Chemscore.Hbond>
4.7488

> <Gold.PLP.Chemscore.CHOScore>
0.0000

> <Gold.PLP.Chemscore.Metal>
0.0000

> <Gold.Chemscore.Hbonds>
donor molecule, donor type, donor heavy atom, donor atom, acceptor molecule, acceptor atom, score
      L1  H     6    35       P1  7948  2.00
      P1  H  7989  7998       L1     1  0.55
      P1  H  7997  8008       L1    12  1.80

> <Gold.PLP.Chemscore.Internal.Correction>
0.0521

> <Gold.Rescore>
     Score         DG    S(hbond)    S(metal)    S(lipo)     H(rot)  DE(clash)    DE(int)     intcor
     13.26     -15.36       2.33        0.00      52.66       1.58       0.11       1.99       ----

> <Gold.Chemscore.Fitness>
13.2579

> <Gold.Chemscore.DG>
-15.3635

> <Gold.Chemscore.ZeroCoef>
-5.4800

> <Gold.Chemscore.Hbond>
2.3265

> <Gold.Chemscore.Metal>
0.0000

> <Gold.Chemscore.Lipo>
52.6567

> <Gold.Chemscore.Internal_Hbond>
0.0000

> <Gold.Chemscore.DEClash>
0.1107

> <Gold.Chemscore.DEInternal>
1.9950

> <Gold.Chemscore.Rot>
1.5812

> <Gold.Chemscore.Internal.Correction>
   9.000000E+99

> <Gold.Chemscore.Hbonds>
donor molecule, donor type, donor heavy atom, donor atom, acceptor molecule, acceptor atom, score
      L1  H     6    35       P1  7948  0.88
      P1  H  7989  7998       L1     1  0.42
      P1  H  7997  8008       L1    12  0.11

> <Gold.Chemscore.Hbond.Weighted>
-7.7705

> <Gold.Chemscore.Metal.Weighted>
-0.0000

> <Gold.Chemscore.Lipo.Weighted>
-6.1608

> <Gold.Chemscore.Internal_Hbond.Weighted>
0.0000

> <Gold.Chemscore.DEClash.Weighted>
0.1107

> <Gold.Chemscore.DEInternal.Weighted>
1.9950

> <Gold.Chemscore.Rot.Weighted>
4.0478

> <Gold.Chemscore.Internal.Correction.Weighted>
   9.000000E+99

> <Gold.Protein.RotatedTorsions>
[ 6907 6896 6895 6894 ] final  120.88 input  -60.11 | X-H torsion
[ 7974 7965 7964 7962 ] final    6.26 input  175.53 | X-H torsion
[ 8008 7997 7996 7995 ] final  -52.57 input   59.86 | X-H torsion
[ 10167 10162 10161 10158 ] final   70.67 input  -65.29 | X-H torsion
[ 10718 10713 10712 10709 ] final  -61.29 input   66.30 | X-H torsion
[ 10763 10752 10751 10750 ] final  -47.61 input  -60.55 | X-H torsion
[ 11005 11000 10999 10996 ] final -137.11 input  -57.11 | X-H torsion

> <Gold.Protein.ActiveResidues>
 VAL166  LYS551  ARG553  GLY616  TRP617  ASP618  TYR619  PRO620  LYS621  CYS622 
 ASP623  PHE694  ASN695  SER759  ASP760  ASP761  ALA762  ILE779  LEU786  VAL792 
 PHE793  MET794  SER795  GLU796  ALA797  LYS798  CYS799  TRP800  GLU811  SER814 

> <Gold.Protein.RotatedAtoms>
  152.4364  133.7369  159.6618 H   0  0  0  0  0  0  0  0  0  0  0  0  # atno 6907 bound_to 6896
  150.8249  133.8179  159.3129 H   0  0  0  0  0  0  0  0  0  0  0  0  # atno 6908 bound_to 6896
  151.5850  135.1059  160.0077 H   0  0  0  0  0  0  0  0  0  0  0  0  # atno 6909 bound_to 6896
  146.2436  140.0260  142.8394 H   0  0  0  0  0  0  0  0  0  0  0  0  # atno 7974 bound_to 7965
  154.4110  140.1220  156.5013 H   0  0  0  0  0  0  0  0  0  0  0  0  # atno 8008 bound_to 7997
  155.6891  140.3495  155.4867 H   0  0  0  0  0  0  0  0  0  0  0  0  # atno 8009 bound_to 7997
  155.9484  140.1100  157.0987 H   0  0  0  0  0  0  0  0  0  0  0  0  # atno 8010 bound_to 7997
  140.0544  144.5285  150.7339 H   0  0  0  0  0  0  0  0  0  0  0  0  # atno 10167 bound_to 10162
  156.0931  130.4197  150.0974 H   0  0  0  0  0  0  0  0  0  0  0  0  # atno 10718 bound_to 10713
  154.0641  135.6614  153.4815 H   0  0  0  0  0  0  0  0  0  0  0  0  # atno 10763 bound_to 10752
  153.0415  135.5142  154.7630 H   0  0  0  0  0  0  0  0  0  0  0  0  # atno 10764 bound_to 10752
  154.6676  135.3024  154.9752 H   0  0  0  0  0  0  0  0  0  0  0  0  # atno 10765 bound_to 10752
  140.8742  134.2013  157.4632 H   0  0  0  0  0  0  0  0  0  0  0  0  # atno 11005 bound_to 11000
  145.1198  140.9455  143.4607 LP  0  0  0  0  0  0  0  0  0  0  0  0  # atno 17320 bound_to 7965
  145.0493  139.3195  143.5937 LP  0  0  0  0  0  0  0  0  0  0  0  0  # atno 17321 bound_to 7965
  140.7201  143.2581  151.4305 LP  0  0  0  0  0  0  0  0  0  0  0  0  # atno 17342 bound_to 10162
  139.5933  144.1452  152.2114 LP  0  0  0  0  0  0  0  0  0  0  0  0  # atno 17343 bound_to 10162
  156.8979  130.9610  151.3580 LP  0  0  0  0  0  0  0  0  0  0  0  0  # atno 17370 bound_to 10713
  157.6086  130.8566  149.8915 LP  0  0  0  0  0  0  0  0  0  0  0  0  # atno 17371 bound_to 10713
  139.8714  134.9788  156.5012 LP  0  0  0  0  0  0  0  0  0  0  0  0  # atno 17394 bound_to 11000
  140.8537  133.8112  155.9195 LP  0  0  0  0  0  0  0  0  0  0  0  0  # atno 17395 bound_to 11000

$$$$
