AV-unprocessed.smi:896|AV-procd|sdf|4078|dock2
  -GOLD-   22720 1563D 1   1.00000     0.00000
 Structure written by MMmdl.
 49 50  0  0  0  0  0  0  0  0  2 V2000
  150.3819  142.8162  157.5897 C   0  0  0  0  0  0  0  0  0  0  0  0
  151.0282  142.1544  156.5076 O   0  0  0  0  0  0  0  0  0  0  0  0
  150.3545  141.1336  155.8685 C   0  0  0  0  0  0  0  0  0  0  0  0
  148.9475  141.1731  155.8306 C   0  0  0  0  0  0  0  0  0  0  0  0
  148.2557  140.1354  155.1785 C   0  0  0  0  0  0  0  0  0  0  0  0
  148.9931  139.0904  154.5728 C   0  0  0  0  0  0  0  0  0  0  0  0
  148.3779  137.9905  153.9137 N   0  0  0  0  0  0  0  0  0  0  0  0
  147.1558  137.4760  154.1305 C   0  0  0  0  0  0  0  0  0  0  0  0
  146.3468  137.8918  154.9607 O   0  0  0  0  0  0  0  0  0  0  0  0
  146.9037  136.4537  153.3005 N   0  0  0  0  0  0  0  0  0  0  0  0
  145.6520  135.7069  153.2572 C   0  0  0  0  0  0  0  0  0  0  0  0
  145.9036  134.1889  153.3273 C   0  0  0  0  0  0  0  0  0  0  0  0
  146.9889  133.6791  152.3518 C   0  0  2  0  0  0  0  0  0  0  0  0
  146.3874  133.2254  151.0071 C   0  0  0  0  0  0  0  0  0  0  0  0
  145.6272  131.8916  151.1296 C   0  0  0  0  0  0  0  0  0  0  0  0
  146.4960  130.8284  151.6930 N   0  3  2  0  0  0  0  0  0  0  0  0
  145.8212  129.5132  151.7298 C   0  0  0  0  0  0  0  0  0  0  0  0
  147.0669  131.2067  153.0096 C   0  0  0  0  0  0  0  0  0  0  0  0
  147.8504  132.5282  152.9140 C   0  0  0  0  0  0  0  0  0  0  0  0
  150.4042  139.1329  154.6789 C   0  0  0  0  0  0  0  0  0  0  0  0
  151.2765  138.0463  154.0752 C   0  0  0  0  0  0  0  0  0  0  0  0
  151.0690  140.1287  155.3050 N   0  0  0  0  0  0  0  0  0  0  0  0
  151.0417  143.5876  157.9869 H   0  0  0  0  0  0  0  0  0  0  0  0
  150.1553  142.1247  158.4026 H   0  0  0  0  0  0  0  0  0  0  0  0
  149.4609  143.3035  157.2664 H   0  0  0  0  0  0  0  0  0  0  0  0
  148.4072  141.9832  156.2982 H   0  0  0  0  0  0  0  0  0  0  0  0
  147.1765  140.1511  155.1670 H   0  0  0  0  0  0  0  0  0  0  0  0
  148.8917  137.6079  153.1335 H   0  0  0  0  0  0  0  0  0  0  0  0
  147.6241  136.1773  152.6494 H   0  0  0  0  0  0  0  0  0  0  0  0
  145.0372  136.0228  154.1003 H   0  0  0  0  0  0  0  0  0  0  0  0
  145.1046  135.9783  152.3544 H   0  0  0  0  0  0  0  0  0  0  0  0
  146.1542  133.9058  154.3492 H   0  0  0  0  0  0  0  0  0  0  0  0
  144.9646  133.6806  153.1036 H   0  0  0  0  0  0  0  0  0  0  0  0
  147.6500  134.5217  152.1444 H   0  0  0  0  0  0  0  0  0  0  0  0
  145.7279  133.9958  150.6063 H   0  0  0  0  0  0  0  0  0  0  0  0
  147.1899  133.1090  150.2775 H   0  0  0  0  0  0  0  0  0  0  0  0
  144.7408  132.0119  151.7537 H   0  0  0  0  0  0  0  0  0  0  0  0
  145.2753  131.5853  150.1437 H   0  0  0  0  0  0  0  0  0  0  0  0
  144.9592  129.5348  152.3980 H   0  0  0  0  0  0  0  0  0  0  0  0
  146.5052  128.7388  152.0786 H   0  0  0  0  0  0  0  0  0  0  0  0
  145.4765  129.2287  150.7352 H   0  0  0  0  0  0  0  0  0  0  0  0
  146.2701  131.2849  153.7503 H   0  0  0  0  0  0  0  0  0  0  0  0
  147.7353  130.4164  153.3535 H   0  0  0  0  0  0  0  0  0  0  0  0
  148.7100  132.3788  152.2590 H   0  0  0  0  0  0  0  0  0  0  0  0
  148.2679  132.7866  153.8862 H   0  0  0  0  0  0  0  0  0  0  0  0
  151.0928  137.9631  153.0036 H   0  0  0  0  0  0  0  0  0  0  0  0
  151.0584  137.0839  154.5391 H   0  0  0  0  0  0  0  0  0  0  0  0
  152.3372  138.2567  154.2187 H   0  0  0  0  0  0  0  0  0  0  0  0
  147.2768  130.7318  151.0595 H   0  0  0  0  0  0  0  0  0  0  0  0
  1  2  1  0  0  0  0
  1 23  1  0  0  0  0
  1 24  1  0  0  0  0
  1 25  1  0  0  0  0
  2  3  1  0  0  0  0
  3 22  1  0  0  0  0
  3  4  2  0  0  0  0
  4  5  1  0  0  0  0
  4 26  1  0  0  0  0
  5  6  2  0  0  0  0
  5 27  1  0  0  0  0
  6  7  1  0  0  0  0
  6 20  1  0  0  0  0
  7  8  1  0  0  0  0
  7 28  1  0  0  0  0
  8  9  2  0  0  0  0
  8 10  1  0  0  0  0
 10 11  1  0  0  0  0
 10 29  1  0  0  0  0
 11 12  1  0  0  0  0
 11 30  1  0  0  0  0
 11 31  1  0  0  0  0
 12 13  1  0  0  0  0
 12 32  1  0  0  0  0
 12 33  1  0  0  0  0
 13 19  1  0  0  0  0
 13 14  1  0  0  0  0
 13 34  1  0  0  0  0
 14 15  1  0  0  0  0
 14 35  1  0  0  0  0
 14 36  1  0  0  0  0
 15 16  1  0  0  0  0
 15 37  1  0  0  0  0
 15 38  1  0  0  0  0
 16 17  1  0  0  0  0
 16 18  1  0  0  0  0
 16 49  1  0  0  0  0
 17 39  1  0  0  0  0
 17 40  1  0  0  0  0
 17 41  1  0  0  0  0
 18 19  1  0  0  0  0
 18 42  1  0  0  0  0
 18 43  1  0  0  0  0
 19 44  1  0  0  0  0
 19 45  1  0  0  0  0
 20 21  1  0  0  0  0
 20 22  2  0  0  0  0
 21 46  1  0  0  0  0
 21 47  1  0  0  0  0
 21 48  1  0  0  0  0
M  CHG  1  16   1
M  END
> <s_m_source_file>
AV-unprocessed.smi

> <i_m_source_file_index>
896

> <i_lp_mmshare_version>
43012

> <i_f3d_flags>
0

> <s_epik_input>
W0NIM11PYzFbY0hdW2NIXWMoYyhuMSlbQ0gzXSlbTkhdQyg9TylbTkhdW0NIMl1bQ0gyXVtDSF0yW0NIMl1bQ0gyXU4oW0NIM10pW0NIMl1bQ0gyXTI=

> <s_epik_cmdline>
J2VwaWtfcHl0aG9uJywgJy1waCcsICc3LjAnLCAnLXRuJywgJzgnLCAnLW1hJywgJzIwMCcsICctbWV0YWxfYmluZGluZycsICctaW1hZScsICc8aW5maWxlLm1hZT4nLCAnLW9tYWUnLCAnPG91dGZpbGUubWFlPic=

> <r_lp_tautomer_probability>
1

> <r_epik_Ionization_Penalty>
0.000968128

> <r_epik_Ionization_Penalty_Charging>
0.000718523

> <r_epik_Ionization_Penalty_Neutral>
0.000249604

> <r_epik_State_Penalty>
0.00045807

> <r_epik_Charging_Adjusted_Penalty>
0.00117659

> <i_epik_Tot_Q>
1

> <i_epik_Tot_abs_Q>
1

> <r_epik_Metal_State_Penalty>
-0

> <b_epik_Metal_Only>
0

> <s_lp_Force_Field>
OPLS_2005

> <r_lp_Energy>
21.0963

> <b_lp_Chiralities_Consistent>
1

> <s_lp_Variant>
AV-unprocessed.smi:896-2

> <Gold.Version>
5.8.1

> <Gold.Id.Protein>
6NUR|6NUR_protein|mol2

> <Gold.PLP.Fitness>
41.7707

> <Gold.PLP.PLP>
-33.5858

> <Gold.PLP.part.hbond>
-3.8958

> <Gold.PLP.part.metal>
0.0000

> <Gold.PLP.part.buried>
-3.6828

> <Gold.PLP.part.nonpolar>
-26.4527

> <Gold.PLP.part.repulsive>
0.1926

> <Gold.PLP.ligand.clash>
0.0000

> <Gold.PLP.ligand.torsion>
1.0597

> <Gold.PLP.Chemscore.Hbond>
3.4149

> <Gold.PLP.Chemscore.CHOScore>
0.0000

> <Gold.PLP.Chemscore.Metal>
0.0000

> <Gold.Chemscore.Hbonds>
donor molecule, donor type, donor heavy atom, donor atom, acceptor molecule, acceptor atom, score
      L1  H     7    28       P1  7948  0.93
      L1  H    10    29       P1  7948  1.00
      L1  H    16    49       P1 10747  1.00
      P1  H  7989  7998       L1    22  0.50

> <Gold.PLP.Chemscore.Internal.Correction>
0.0597

> <Gold.Rescore>
     Score         DG    S(hbond)    S(metal)    S(lipo)     H(rot)  DE(clash)    DE(int)     intcor
     18.75     -21.14       2.94        0.00      86.23       1.65       0.13       2.26       ----

> <Gold.Chemscore.Fitness>
18.7492

> <Gold.Chemscore.DG>
-21.1429

> <Gold.Chemscore.ZeroCoef>
-5.4800

> <Gold.Chemscore.Hbond>
2.9351

> <Gold.Chemscore.Metal>
0.0000

> <Gold.Chemscore.Lipo>
86.2312

> <Gold.Chemscore.Internal_Hbond>
0.0000

> <Gold.Chemscore.DEClash>
0.1336

> <Gold.Chemscore.DEInternal>
2.2600

> <Gold.Chemscore.Rot>
1.6521

> <Gold.Chemscore.Internal.Correction>
   9.000000E+99

> <Gold.Chemscore.Hbonds>
donor molecule, donor type, donor heavy atom, donor atom, acceptor molecule, acceptor atom, score
      L1  H     7    28       P1  7948  0.90
      L1  H    10    29       P1  7948  0.94
      L1  H    16    49       P1 10747  1.00
      P1  H  7989  7998       L1    22  0.01

> <Gold.Chemscore.Hbond.Weighted>
-9.8032

> <Gold.Chemscore.Metal.Weighted>
-0.0000

> <Gold.Chemscore.Lipo.Weighted>
-10.0891

> <Gold.Chemscore.Internal_Hbond.Weighted>
0.0000

> <Gold.Chemscore.DEClash.Weighted>
0.1336

> <Gold.Chemscore.DEInternal.Weighted>
2.2600

> <Gold.Chemscore.Rot.Weighted>
4.2294

> <Gold.Chemscore.Internal.Correction.Weighted>
   9.000000E+99

> <Gold.Protein.RotatedTorsions>
[ 6907 6896 6895 6894 ] final  -87.26 input  -60.11 | X-H torsion
[ 7974 7965 7964 7962 ] final  -29.22 input  175.53 | X-H torsion
[ 8008 7997 7996 7995 ] final   41.84 input   59.86 | X-H torsion
[ 10167 10162 10161 10158 ] final   57.04 input  -65.29 | X-H torsion
[ 10718 10713 10712 10709 ] final  -23.96 input   66.30 | X-H torsion
[ 10763 10752 10751 10750 ] final  160.88 input  -60.55 | X-H torsion
[ 11005 11000 10999 10996 ] final -156.15 input  -57.11 | X-H torsion

> <Gold.Protein.ActiveResidues>
 VAL166  LYS551  ARG553  GLY616  TRP617  ASP618  TYR619  PRO620  LYS621  CYS622 
 ASP623  PHE694  ASN695  SER759  ASP760  ASP761  ALA762  ILE779  LEU786  VAL792 
 PHE793  MET794  SER795  GLU796  ALA797  LYS798  CYS799  TRP800  GLU811  SER814 

> <Gold.Protein.RotatedAtoms>
  150.6866  134.2924  159.4671 H   0  0  0  0  0  0  0  0  0  0  0  0  # atno 6907 bound_to 6896
  152.0828  134.9457  160.0582 H   0  0  0  0  0  0  0  0  0  0  0  0  # atno 6908 bound_to 6896
  152.0804  133.4115  159.4535 H   0  0  0  0  0  0  0  0  0  0  0  0  # atno 6909 bound_to 6896
  146.1232  140.5384  142.8726 H   0  0  0  0  0  0  0  0  0  0  0  0  # atno 7974 bound_to 7965
  155.2763  140.3369  155.4261 H   0  0  0  0  0  0  0  0  0  0  0  0  # atno 8008 bound_to 7997
  156.2110  140.1770  156.7736 H   0  0  0  0  0  0  0  0  0  0  0  0  # atno 8009 bound_to 7997
  154.5686  140.0674  156.8915 H   0  0  0  0  0  0  0  0  0  0  0  0  # atno 8010 bound_to 7997
  140.2023  144.3976  150.6524 H   0  0  0  0  0  0  0  0  0  0  0  0  # atno 10167 bound_to 10162
  156.4840  130.4551  149.6794 H   0  0  0  0  0  0  0  0  0  0  0  0  # atno 10718 bound_to 10713
  154.2544  135.2770  155.2804 H   0  0  0  0  0  0  0  0  0  0  0  0  # atno 10763 bound_to 10752
  154.5438  135.5695  153.6865 H   0  0  0  0  0  0  0  0  0  0  0  0  # atno 10764 bound_to 10752
  152.9974  135.6257  154.2692 H   0  0  0  0  0  0  0  0  0  0  0  0  # atno 10765 bound_to 10752
  140.6787  134.4169  157.5228 H   0  0  0  0  0  0  0  0  0  0  0  0  # atno 11005 bound_to 11000
  144.7617  140.5437  143.6731 LP  0  0  0  0  0  0  0  0  0  0  0  0  # atno 17320 bound_to 7965
  145.5422  139.1475  143.3441 LP  0  0  0  0  0  0  0  0  0  0  0  0  # atno 17321 bound_to 7965
  140.6382  143.2198  151.6348 LP  0  0  0  0  0  0  0  0  0  0  0  0  # atno 17342 bound_to 10162
  139.5212  144.3199  152.0920 LP  0  0  0  0  0  0  0  0  0  0  0  0  # atno 17343 bound_to 10162
  156.3493  130.7423  151.2380 LP  0  0  0  0  0  0  0  0  0  0  0  0  # atno 17370 bound_to 10713
  157.7480  131.0382  150.4490 LP  0  0  0  0  0  0  0  0  0  0  0  0  # atno 17371 bound_to 10713
  139.8958  134.8673  156.2113 LP  0  0  0  0  0  0  0  0  0  0  0  0  # atno 17394 bound_to 11000
  141.0335  133.6976  156.1471 LP  0  0  0  0  0  0  0  0  0  0  0  0  # atno 17395 bound_to 11000

$$$$
