#       Name:                AV-unprocessed.smi:1772
#       Creating user name   scv26
#       Creation time:       Fri Mar 27 08:40:04 2020


#       File generated by GOLD software.
#

@<TRIPOS>MOLECULE
AV-unprocessed.smi:1772
    36    37     1
SMALL
NO_CHARGES


@<TRIPOS>ATOM
      1 ****         0.1133   1.4778   0.8559 O.2            1 S1                 0.0000
      2 ****        -0.4063   0.3706   0.9931 C.2            1 S1                 0.0000
      3 ****         0.2965  -0.7665   1.0945 N.am           1 S1                 0.0000
      4 ****         1.7524  -0.8581   1.0458 C.3            1 S1                 0.0000
      5 ****         2.2940  -0.7708  -0.3946 C.3            1 S1                 0.0000
      6 ****         3.8306  -0.8707  -0.4518 C.3            1 S1                 0.0000
      7 ****         4.2551  -1.0460  -1.9134 C.3            1 S1                 0.0000
      8 ****         2.9257  -2.0306  -2.6993 S.o2           1 S1                 0.0000
      9 ****         2.4365  -1.3138  -3.8865 O.2            1 S1                 0.0000
     10 ****         3.3407  -3.4390  -2.7822 O.2            1 S1                 0.0000
     11 ****         1.7189  -1.8467  -1.3318 C.3            1 S1                 0.0000
     12 ****        -1.7276   0.1362   1.0760 N.am           1 S1                 0.0000
     13 ****        -2.8004   1.0671   1.0107 C.ar           1 S1                 0.0000
     14 ****        -4.0440   0.6675   1.5488 C.ar           1 S1                 0.0000
     15 ****        -5.1420   1.5503   1.4956 C.ar           1 S1                 0.0000
     16 ****        -5.0008   2.7649   0.9233 N.pl3          1 S1                 1.0000
     17 ****        -3.8373   3.1859   0.3824 C.ar           1 S1                 0.0000
     18 ****        -2.7046   2.3467   0.4062 C.ar           1 S1                 0.0000
     19 ****        -0.2085  -1.6331   1.2107 H              1 S1                 0.0000
     20 ****         2.1939  -0.0750   1.6646 H              1 S1                 0.0000
     21 ****         2.0446  -1.8065   1.4976 H              1 S1                 0.0000
     22 ****         2.0254   0.2015  -0.8106 H              1 S1                 0.0000
     23 ****         4.3094  -0.0013  -0.0005 H              1 S1                 0.0000
     24 ****         4.1556  -1.7436   0.1162 H              1 S1                 0.0000
     25 ****         4.3049  -0.0817  -2.4198 H              1 S1                 0.0000
     26 ****         5.2156  -1.5497  -2.0240 H              1 S1                 0.0000
     27 ****         1.6429  -2.8093  -0.8254 H              1 S1                 0.0000
     28 ****         0.7386  -1.5849  -1.7307 H              1 S1                 0.0000
     29 ****        -1.9948  -0.8186   1.2660 H              1 S1                 0.0000
     30 ****        -4.1588  -0.3049   2.0058 H              1 S1                 0.0000
     31 ****        -6.1217   1.3219   1.8896 H              1 S1                 0.0000
     32 ****        -3.8483   4.1732  -0.0559 H              1 S1                 0.0000
     33 ****        -1.7914   2.6974  -0.0495 H              1 S1                 0.0000
     34 ****        -5.8079   3.3888   0.8940 H              1 S1                 0.0000
     35 ****         1.1090   1.5613   0.8150 LP             1 S1                 0.0000
     36 ****        -0.4602   2.2940   0.7853 LP             1 S1                 0.0000
@<TRIPOS>BOND
    1    1    2 2     
    2    2    3 am    
    3    2   12 am    
    4    3    4 1     
    5    3   19 1     
    6    4    5 1     
    7    4   20 1     
    8    4   21 1     
    9    5   11 1     
   10    5    6 1     
   11    5   22 1     
   12    6    7 1     
   13    6   23 1     
   14    6   24 1     
   15    7    8 1     
   16    7   25 1     
   17    7   26 1     
   18    8    9 2     
   19    8   10 2     
   20    8   11 1     
   21   11   27 1     
   22   11   28 1     
   23   12   13 1     
   24   12   29 1     
   25   13   18 ar    
   26   13   14 ar    
   27   14   15 ar    
   28   14   30 1     
   29   15   16 ar    
   30   15   31 1     
   31   16   17 ar    
   32   16   34 1     
   33   17   18 ar    
   34   17   32 1     
   35   18   33 1     
   36    1   35 1     
   37    1   36 1     
@<TRIPOS>SUBSTRUCTURE
      1 S1             1
@<TRIPOS>SET
LONE_PAIRS      STATIC     ATOMS    <user>   **** ""
4 35 36 9 10
DONOR_HYDROGENS      STATIC     ATOMS    <user>   **** ""
3 19 29 34
ATOM$BLUE        STATIC     ATOMS    COLORGROUP SYSTEM
4 35 36 9 10
ATOM$RED        STATIC     ATOMS    COLORGROUP SYSTEM
3 19 29 34
