AV-unprocessed.smi:3033|AV-procd|sdf|11573|dock6
  -GOLD-   2272016543D 1   1.00000     0.00000
 Structure written by MMmdl.
 33 34  0  0  0  0  0  0  0  0  1 V2000
  153.7335  142.1283  162.1969 C   0  0  0  0  0  0  0  0  0  0  0  0
  153.3075  141.5938  160.9521 O   0  0  0  0  0  0  0  0  0  0  0  0
  152.5791  142.4082  160.1117 C   0  0  0  0  0  0  0  0  0  0  0  0
  152.5043  143.8182  160.2369 C   0  0  0  0  0  0  0  0  0  0  0  0
  151.7314  144.5726  159.3338 C   0  0  0  0  0  0  0  0  0  0  0  0
  151.0282  143.9323  158.2973 C   0  0  0  0  0  0  0  0  0  0  0  0
  151.0965  142.5302  158.1572 C   0  0  0  0  0  0  0  0  0  0  0  0
  150.3340  141.8253  157.0455 C   0  0  2  0  0  0  0  0  0  0  0  0
  149.4847  140.8240  157.5698 O   0  0  0  0  0  0  0  0  0  0  0  0
  151.3053  141.1901  156.0264 C   0  0  0  0  0  0  0  0  0  0  0  0
  151.5124  139.7781  156.2438 N   0  0  0  0  0  0  0  0  0  0  0  0
  152.1065  139.2915  157.3983 C   0  0  0  0  0  0  0  0  0  0  0  0
  152.3367  137.9746  157.6183 C   0  0  0  0  0  0  0  0  0  0  0  0
  153.0857  137.4482  159.0831 Cl  0  0  0  0  0  0  0  0  0  0  0  0
  151.9545  136.9871  156.6098 C   0  0  0  0  0  0  0  0  0  0  0  0
  152.1137  135.7719  156.7063 O   0  0  0  0  0  0  0  0  0  0  0  0
  151.3657  137.5227  155.4602 N   0  0  0  0  0  0  0  0  0  0  0  0
  151.1280  138.8773  155.2236 C   0  0  0  0  0  0  0  0  0  0  0  0
  150.6091  139.2301  154.1648 O   0  0  0  0  0  0  0  0  0  0  0  0
  151.8694  141.7796  159.0679 C   0  0  0  0  0  0  0  0  0  0  0  0
  151.0908  136.8736  154.7375 H   0  0  0  0  0  0  0  0  0  0  0  0
  154.2870  141.3663  162.7454 H   0  0  0  0  0  0  0  0  0  0  0  0
  152.8852  142.4275  162.8141 H   0  0  0  0  0  0  0  0  0  0  0  0
  154.3981  142.9820  162.0574 H   0  0  0  0  0  0  0  0  0  0  0  0
  153.0297  144.3453  161.0187 H   0  0  0  0  0  0  0  0  0  0  0  0
  151.6775  145.6462  159.4370 H   0  0  0  0  0  0  0  0  0  0  0  0
  150.4355  144.5202  157.6115 H   0  0  0  0  0  0  0  0  0  0  0  0
  149.7049  142.5610  156.5422 H   0  0  0  0  0  0  0  0  0  0  0  0
  149.5532  140.8363  158.5120 H   0  0  0  0  0  0  0  0  0  0  0  0
  150.8795  141.2440  155.0225 H   0  0  0  0  0  0  0  0  0  0  0  0
  152.2700  141.6975  155.9587 H   0  0  0  0  0  0  0  0  0  0  0  0
  152.4054  139.9968  158.1611 H   0  0  0  0  0  0  0  0  0  0  0  0
  151.9213  140.7049  158.9697 H   0  0  0  0  0  0  0  0  0  0  0  0
  1  2  1  0  0  0  0
  1 22  1  0  0  0  0
  1 23  1  0  0  0  0
  1 24  1  0  0  0  0
  2  3  1  0  0  0  0
  3 20  1  0  0  0  0
  3  4  2  0  0  0  0
  4  5  1  0  0  0  0
  4 25  1  0  0  0  0
  5  6  2  0  0  0  0
  5 26  1  0  0  0  0
  6  7  1  0  0  0  0
  6 27  1  0  0  0  0
  7  8  1  0  0  0  0
  7 20  2  0  0  0  0
  8  9  1  0  0  0  0
  8 10  1  0  0  0  0
  8 28  1  0  0  0  0
  9 29  1  0  0  0  0
 10 11  1  0  0  0  0
 10 30  1  0  0  0  0
 10 31  1  0  0  0  0
 11 18  1  0  0  0  0
 11 12  1  0  0  0  0
 12 13  2  0  0  0  0
 12 32  1  0  0  0  0
 13 14  1  0  0  0  0
 13 15  1  0  0  0  0
 15 16  2  0  0  0  0
 15 17  1  0  0  0  0
 17 21  1  0  0  0  0
 17 18  1  0  0  0  0
 18 19  2  0  0  0  0
 20 33  1  0  0  0  0
M  END
> <s_m_source_file>
AV-unprocessed.smi

> <i_m_source_file_index>
3033

> <i_lp_mmshare_version>
43012

> <i_f3d_flags>
0

> <s_epik_input>
W0NIM11PYzFbY0hdW2NIXVtjSF1jKFtjSF0xKVtDQEhdKFtPSF0pW0NIMl1uMltjSF1jKENsKWMoPU8pW25IXWMyPU8=

> <s_epik_cmdline>
J2VwaWtfcHl0aG9uJywgJy1waCcsICc3LjAnLCAnLXRuJywgJzgnLCAnLW1hJywgJzIwMCcsICctbWV0YWxfYmluZGluZycsICctaW1hZScsICc8aW5maWxlLm1hZT4nLCAnLW9tYWUnLCAnPG91dGZpbGUubWFlPic=

> <r_lp_tautomer_probability>
0.999537

> <r_epik_Ionization_Penalty>
0.0292058

> <r_epik_Ionization_Penalty_Charging>
0.0292057

> <r_epik_Ionization_Penalty_Neutral>
7.1713e-08

> <r_epik_State_Penalty>
0.0240115

> <r_epik_Charging_Adjusted_Penalty>
0.0532172

> <i_epik_Tot_Q>
0

> <i_epik_Tot_abs_Q>
0

> <r_epik_Metal_State_Penalty>
2.21956

> <b_epik_Metal_Only>
0

> <s_lp_Force_Field>
OPLS_2005

> <r_lp_Energy>
16.8707

> <b_lp_Chiralities_Consistent>
1

> <s_lp_Variant>
AV-unprocessed.smi:3033-1

> <Gold.Version>
5.8.1

> <Gold.Id.Protein>
6NUR|6NUR_protein|mol2

> <Gold.PLP.Fitness>
42.3037

> <Gold.PLP.PLP>
-37.9041

> <Gold.PLP.part.hbond>
-2.0000

> <Gold.PLP.part.metal>
0.0000

> <Gold.PLP.part.buried>
-5.4177

> <Gold.PLP.part.nonpolar>
-30.2710

> <Gold.PLP.part.repulsive>
0.2741

> <Gold.PLP.ligand.clash>
0.0000

> <Gold.PLP.ligand.torsion>
0.8082

> <Gold.PLP.Chemscore.Hbond>
2.0000

> <Gold.PLP.Chemscore.CHOScore>
0.0000

> <Gold.PLP.Chemscore.Metal>
0.0000

> <Gold.Chemscore.Hbonds>
donor molecule, donor type, donor heavy atom, donor atom, acceptor molecule, acceptor atom, score
      P1  H  7989  7998       L1    19  0.99
      P1  H 10752 10765       L1    16  1.00

> <Gold.PLP.Chemscore.Internal.Correction>
0.0160

> <Gold.Rescore>
     Score         DG    S(hbond)    S(metal)    S(lipo)     H(rot)  DE(clash)    DE(int)     intcor
     14.95     -16.99       1.82        0.00     101.45       2.51       0.07       1.97       ----

> <Gold.Chemscore.Fitness>
14.9494

> <Gold.Chemscore.DG>
-16.9893

> <Gold.Chemscore.ZeroCoef>
-5.4800

> <Gold.Chemscore.Hbond>
1.8164

> <Gold.Chemscore.Metal>
0.0000

> <Gold.Chemscore.Lipo>
101.4524

> <Gold.Chemscore.Internal_Hbond>
0.0000

> <Gold.Chemscore.DEClash>
0.0727

> <Gold.Chemscore.DEInternal>
1.9671

> <Gold.Chemscore.Rot>
2.5107

> <Gold.Chemscore.Internal.Correction>
   9.000000E+99

> <Gold.Chemscore.Hbonds>
donor molecule, donor type, donor heavy atom, donor atom, acceptor molecule, acceptor atom, score
      P1  H  7989  7998       L1    19  0.60
      P1  H 10752 10765       L1    16  0.30

> <Gold.Chemscore.Hbond.Weighted>
-6.0668

> <Gold.Chemscore.Metal.Weighted>
-0.0000

> <Gold.Chemscore.Lipo.Weighted>
-11.8699

> <Gold.Chemscore.Internal_Hbond.Weighted>
0.0000

> <Gold.Chemscore.DEClash.Weighted>
0.0727

> <Gold.Chemscore.DEInternal.Weighted>
1.9671

> <Gold.Chemscore.Rot.Weighted>
6.4274

> <Gold.Chemscore.Internal.Correction.Weighted>
   9.000000E+99

> <Gold.Protein.RotatedTorsions>
[ 6907 6896 6895 6894 ] final  -23.59 input  -60.11 | X-H torsion
[ 7974 7965 7964 7962 ] final   41.05 input  175.53 | X-H torsion
[ 8008 7997 7996 7995 ] final   43.62 input   59.86 | X-H torsion
[ 10167 10162 10161 10158 ] final  175.79 input  -65.29 | X-H torsion
[ 10718 10713 10712 10709 ] final  108.46 input   66.30 | X-H torsion
[ 10763 10752 10751 10750 ] final -141.70 input  -60.55 | X-H torsion
[ 11005 11000 10999 10996 ] final  165.80 input  -57.11 | X-H torsion

> <Gold.Protein.ActiveResidues>
 VAL166  LYS551  ARG553  GLY616  TRP617  ASP618  TYR619  PRO620  LYS621  CYS622 
 ASP623  PHE694  ASN695  SER759  ASP760  ASP761  ALA762  ILE779  LEU786  VAL792 
 PHE793  MET794  SER795  GLU796  ALA797  LYS798  CYS799  TRP800  GLU811  SER814 

> <Gold.Protein.RotatedAtoms>
  151.2018  135.0446  159.8875 H   0  0  0  0  0  0  0  0  0  0  0  0  # atno 6907 bound_to 6896
  152.5432  134.0841  159.8258 H   0  0  0  0  0  0  0  0  0  0  0  0  # atno 6908 bound_to 6896
  151.0983  133.5215  159.2643 H   0  0  0  0  0  0  0  0  0  0  0  0  # atno 6909 bound_to 6896
  146.0855  139.5460  142.9510 H   0  0  0  0  0  0  0  0  0  0  0  0  # atno 7974 bound_to 7965
  155.3057  140.3388  155.4246 H   0  0  0  0  0  0  0  0  0  0  0  0  # atno 8008 bound_to 7997
  156.1980  140.1722  156.7997 H   0  0  0  0  0  0  0  0  0  0  0  0  # atno 8009 bound_to 7997
  154.5523  140.0703  156.8671 H   0  0  0  0  0  0  0  0  0  0  0  0  # atno 8010 bound_to 7997
  139.5190  144.2991  152.0395 H   0  0  0  0  0  0  0  0  0  0  0  0  # atno 10167 bound_to 10162
  157.6585  131.0894  150.6309 H   0  0  0  0  0  0  0  0  0  0  0  0  # atno 10718 bound_to 10713
  154.8536  135.3517  154.5910 H   0  0  0  0  0  0  0  0  0  0  0  0  # atno 10763 bound_to 10752
  153.6520  135.6993  153.5210 H   0  0  0  0  0  0  0  0  0  0  0  0  # atno 10764 bound_to 10752
  153.2886  135.4241  155.1104 H   0  0  0  0  0  0  0  0  0  0  0  0  # atno 10765 bound_to 10752
  140.2599  134.7911  157.3580 H   0  0  0  0  0  0  0  0  0  0  0  0  # atno 11005 bound_to 11000
  145.6138  141.0335  143.1952 LP  0  0  0  0  0  0  0  0  0  0  0  0  # atno 17320 bound_to 7965
  144.7322  139.7690  143.7343 LP  0  0  0  0  0  0  0  0  0  0  0  0  # atno 17321 bound_to 7965
  140.2439  144.4240  150.6249 LP  0  0  0  0  0  0  0  0  0  0  0  0  # atno 17342 bound_to 10162
  140.6272  143.2182  151.6573 LP  0  0  0  0  0  0  0  0  0  0  0  0  # atno 17343 bound_to 10162
  156.6613  130.4513  149.5687 LP  0  0  0  0  0  0  0  0  0  0  0  0  # atno 17370 bound_to 10713
  156.2065  130.6652  151.1224 LP  0  0  0  0  0  0  0  0  0  0  0  0  # atno 17371 bound_to 10713
  140.1475  134.4892  155.7985 LP  0  0  0  0  0  0  0  0  0  0  0  0  # atno 17394 bound_to 11000
  141.2191  133.6849  156.7320 LP  0  0  0  0  0  0  0  0  0  0  0  0  # atno 17395 bound_to 11000

$$$$
