AV-unprocessed.smi:2119|AV-procd|sdf|8637|dock1
  -GOLD-   2272011383D 1   1.00000     0.00000
 Structure written by MMmdl.
 48 50  0  0  0  0  0  0  0  0  2 V2000
  144.4814  136.7620  152.1483 O   0  0  0  0  0  0  0  0  0  0  0  0
  145.6517  136.4645  151.9123 C   0  0  0  0  0  0  0  0  0  0  0  0
  146.6933  137.2161  152.2961 N   0  0  0  0  0  0  0  0  0  0  0  0
  146.5894  138.4451  153.0765 C   0  0  0  0  0  0  0  0  0  0  0  0
  147.9367  139.2009  153.2579 C   0  0  1  0  0  0  0  0  0  0  0  0
  147.8056  140.3403  154.2970 C   0  0  1  0  0  0  0  0  0  0  0  0
  146.9866  141.5295  153.8251 C   0  0  0  0  0  0  0  0  0  0  0  0
  146.6414  142.2205  155.1388 C   0  0  0  0  0  0  0  0  0  0  0  0
  146.5037  141.1740  156.0926 O   0  0  0  0  0  0  0  0  0  0  0  0
  147.0387  139.9620  155.5693 C   0  0  0  0  0  0  0  0  0  0  0  0
  149.0964  138.3270  153.6162 N   0  3  0  0  0  0  0  0  0  0  0  0
  150.4210  138.9915  153.6977 C   0  0  0  0  0  0  0  0  0  0  0  0
  151.5279  137.9332  153.8390 C   0  0  0  0  0  0  0  0  0  0  0  0
  151.2723  137.1263  154.9831 O   0  0  0  0  0  0  0  0  0  0  0  0
  150.0386  136.4239  154.8815 C   0  0  0  0  0  0  0  0  0  0  0  0
  148.8786  137.4277  154.7755 C   0  0  0  0  0  0  0  0  0  0  0  0
  146.0575  135.3834  151.2250 N   0  0  0  0  0  0  0  0  0  0  0  0
  145.2679  134.3310  150.6877 C   0  0  0  0  0  0  0  0  0  0  0  0
  143.8678  134.4121  150.8358 C   0  0  0  0  0  0  0  0  0  0  0  0
  143.0596  133.3943  150.2950 C   0  0  0  0  0  0  0  0  0  0  0  0
  143.6862  132.3329  149.6140 C   0  0  0  0  0  0  0  0  0  0  0  0
  145.0228  132.2464  149.4496 N   0  0  0  0  0  0  0  0  0  0  0  0
  145.7924  133.2253  149.9725 C   0  0  0  0  0  0  0  0  0  0  0  0
  147.6226  136.9018  152.0570 H   0  0  0  0  0  0  0  0  0  0  0  0
  145.8578  139.0914  152.5896 H   0  0  0  0  0  0  0  0  0  0  0  0
  146.1554  138.1977  154.0455 H   0  0  0  0  0  0  0  0  0  0  0  0
  148.1776  139.6825  152.3090 H   0  0  0  0  0  0  0  0  0  0  0  0
  148.7953  140.6960  154.5871 H   0  0  0  0  0  0  0  0  0  0  0  0
  147.5289  142.1824  153.1404 H   0  0  0  0  0  0  0  0  0  0  0  0
  146.0743  141.1951  153.3284 H   0  0  0  0  0  0  0  0  0  0  0  0
  147.4583  142.8713  155.4528 H   0  0  0  0  0  0  0  0  0  0  0  0
  145.7345  142.8216  155.0704 H   0  0  0  0  0  0  0  0  0  0  0  0
  146.2064  139.2955  155.3385 H   0  0  0  0  0  0  0  0  0  0  0  0
  147.6719  139.4662  156.3055 H   0  0  0  0  0  0  0  0  0  0  0  0
  150.5987  139.5917  152.8055 H   0  0  0  0  0  0  0  0  0  0  0  0
  150.4543  139.6652  154.5545 H   0  0  0  0  0  0  0  0  0  0  0  0
  151.5886  137.3103  152.9450 H   0  0  0  0  0  0  0  0  0  0  0  0
  152.4977  138.4168  153.9566 H   0  0  0  0  0  0  0  0  0  0  0  0
  150.0568  135.7567  154.0181 H   0  0  0  0  0  0  0  0  0  0  0  0
  149.9140  135.7976  155.7651 H   0  0  0  0  0  0  0  0  0  0  0  0
  148.8127  138.0011  155.6990 H   0  0  0  0  0  0  0  0  0  0  0  0
  147.9378  136.8879  154.6618 H   0  0  0  0  0  0  0  0  0  0  0  0
  147.0466  135.3214  151.0334 H   0  0  0  0  0  0  0  0  0  0  0  0
  143.4154  135.2414  151.3601 H   0  0  0  0  0  0  0  0  0  0  0  0
  141.9849  133.4270  150.3981 H   0  0  0  0  0  0  0  0  0  0  0  0
  143.0976  131.5354  149.1852 H   0  0  0  0  0  0  0  0  0  0  0  0
  146.8488  133.1142  149.7844 H   0  0  0  0  0  0  0  0  0  0  0  0
  149.1686  137.6941  152.8325 H   0  0  0  0  0  0  0  0  0  0  0  0
  1  2  2  0  0  0  0
  2  3  1  0  0  0  0
  2 17  1  0  0  0  0
  3  4  1  0  0  0  0
  3 24  1  0  0  0  0
  4  5  1  0  0  0  0
  4 25  1  0  0  0  0
  4 26  1  0  0  0  0
  5  6  1  0  0  0  0
  5 11  1  0  0  0  0
  5 27  1  0  0  0  0
  6 10  1  0  0  0  0
  6  7  1  0  0  0  0
  6 28  1  0  0  0  0
  7  8  1  0  0  0  0
  7 29  1  0  0  0  0
  7 30  1  0  0  0  0
  8  9  1  0  0  0  0
  8 31  1  0  0  0  0
  8 32  1  0  0  0  0
  9 10  1  0  0  0  0
 10 33  1  0  0  0  0
 10 34  1  0  0  0  0
 11 16  1  0  0  0  0
 11 12  1  0  0  0  0
 11 48  1  0  0  0  0
 12 13  1  0  0  0  0
 12 35  1  0  0  0  0
 12 36  1  0  0  0  0
 13 14  1  0  0  0  0
 13 37  1  0  0  0  0
 13 38  1  0  0  0  0
 14 15  1  0  0  0  0
 15 16  1  0  0  0  0
 15 39  1  0  0  0  0
 15 40  1  0  0  0  0
 16 41  1  0  0  0  0
 16 42  1  0  0  0  0
 17 18  1  0  0  0  0
 17 43  1  0  0  0  0
 18 23  1  0  0  0  0
 18 19  2  0  0  0  0
 19 20  1  0  0  0  0
 19 44  1  0  0  0  0
 20 21  2  0  0  0  0
 20 45  1  0  0  0  0
 21 22  1  0  0  0  0
 21 46  1  0  0  0  0
 22 23  2  0  0  0  0
 23 47  1  0  0  0  0
M  CHG  1  11   1
M  END
> <s_m_source_file>
AV-unprocessed.smi

> <i_m_source_file_index>
2119

> <i_lp_mmshare_version>
43012

> <i_f3d_flags>
0

> <s_epik_input>
W2NIXTFuW2NIXVtjSF1bY0hdYzFbTkhdQyg9TylbTkhdW0NIMl1bQ0BIXShbQ0BASF0yW0NIMl1bQ0gyXU9bQ0gyXTIpTjNbQ0gyXVtDSDJdT1tDSDJdW0NIMl0z

> <s_epik_cmdline>
J2VwaWtfcHl0aG9uJywgJy1waCcsICc3LjAnLCAnLXRuJywgJzgnLCAnLW1hJywgJzIwMCcsICctbWV0YWxfYmluZGluZycsICctaW1hZScsICc8aW5maWxlLm1hZT4nLCAnLW9tYWUnLCAnPG91dGZpbGUubWFlPic=

> <r_epik_Ionization_Penalty>
0.987463

> <r_epik_Ionization_Penalty_Charging>
0.98326

> <r_epik_Ionization_Penalty_Neutral>
0.00420251

> <r_epik_State_Penalty>
1.01721

> <r_epik_Charging_Adjusted_Penalty>
2.00047

> <i_epik_Tot_Q>
1

> <i_epik_Tot_abs_Q>
1

> <r_epik_Metal_State_Penalty>
1.01439

> <b_epik_Metal_Only>
0

> <s_lp_Force_Field>
OPLS_2005

> <r_lp_Energy>
47.2413

> <b_lp_Chiralities_Consistent>
1

> <s_lp_Variant>
AV-unprocessed.smi:2119-8

> <Gold.Version>
5.8.1

> <Gold.Id.Protein>
6NUR|6NUR_protein|mol2

> <Gold.PLP.Fitness>
48.9685

> <Gold.PLP.PLP>
-34.7775

> <Gold.PLP.part.hbond>
-2.9061

> <Gold.PLP.part.metal>
0.0000

> <Gold.PLP.part.buried>
-5.0912

> <Gold.PLP.part.nonpolar>
-27.8578

> <Gold.PLP.part.repulsive>
0.4747

> <Gold.PLP.ligand.clash>
0.0000

> <Gold.PLP.ligand.torsion>
0.4805

> <Gold.PLP.Chemscore.Hbond>
3.6490

> <Gold.PLP.Chemscore.CHOScore>
1.2914

> <Gold.PLP.Chemscore.Metal>
0.0000

> <Gold.Chemscore.Hbonds>
donor molecule, donor type, donor heavy atom, donor atom, acceptor molecule, acceptor atom, score
      L1  H     3    24       P1  7948  0.89
      L1  H    11    48       P1  7948  2.00
      L1  H    17    43       P1  7948  0.42
      L1  C    21    46       P1 10952  0.84

> <Gold.PLP.Chemscore.Internal.Correction>
0.3310

> <Gold.Rescore>
     Score         DG    S(hbond)    S(metal)    S(lipo)     H(rot)  DE(clash)    DE(int)     intcor
     16.87     -19.30       2.22        0.00      91.91       1.70       0.25       2.19       ----

> <Gold.Chemscore.Fitness>
16.8670

> <Gold.Chemscore.DG>
-19.2981

> <Gold.Chemscore.ZeroCoef>
-5.4800

> <Gold.Chemscore.Hbond>
2.2221

> <Gold.Chemscore.Metal>
0.0000

> <Gold.Chemscore.Lipo>
91.9139

> <Gold.Chemscore.Internal_Hbond>
0.0000

> <Gold.Chemscore.DEClash>
0.2454

> <Gold.Chemscore.DEInternal>
2.1857

> <Gold.Chemscore.Rot>
1.7021

> <Gold.Chemscore.Internal.Correction>
   9.000000E+99

> <Gold.Chemscore.Hbonds>
donor molecule, donor type, donor heavy atom, donor atom, acceptor molecule, acceptor atom, score
      L1  H     3    24       P1  7948  0.86
      L1  H    11    48       P1  7948  0.98
      L1  H    17    43       P1  7948  0.31

> <Gold.Chemscore.Hbond.Weighted>
-7.4217

> <Gold.Chemscore.Metal.Weighted>
-0.0000

> <Gold.Chemscore.Lipo.Weighted>
-10.7539

> <Gold.Chemscore.Internal_Hbond.Weighted>
0.0000

> <Gold.Chemscore.DEClash.Weighted>
0.2454

> <Gold.Chemscore.DEInternal.Weighted>
2.1857

> <Gold.Chemscore.Rot.Weighted>
4.3575

> <Gold.Chemscore.Internal.Correction.Weighted>
   9.000000E+99

> <Gold.Protein.RotatedTorsions>
[ 6907 6896 6895 6894 ] final  167.37 input  -60.11 | X-H torsion
[ 7974 7965 7964 7962 ] final    0.37 input  175.53 | X-H torsion
[ 8008 7997 7996 7995 ] final  134.76 input   59.86 | X-H torsion
[ 10167 10162 10161 10158 ] final  -90.75 input  -65.29 | X-H torsion
[ 10718 10713 10712 10709 ] final   44.68 input   66.30 | X-H torsion
[ 10763 10752 10751 10750 ] final  106.08 input  -60.55 | X-H torsion
[ 11005 11000 10999 10996 ] final  -92.37 input  -57.11 | X-H torsion

> <Gold.Protein.ActiveResidues>
 VAL166  LYS551  ARG553  GLY616  TRP617  ASP618  TYR619  PRO620  LYS621  CYS622 
 ASP623  PHE694  ASN695  SER759  ASP760  ASP761  ALA762  ILE779  LEU786  VAL792 
 PHE793  MET794  SER795  GLU796  ALA797  LYS798  CYS799  TRP800  GLU811  SER814 

> <Gold.Protein.RotatedAtoms>
  151.8643  133.3463  159.3713 H   0  0  0  0  0  0  0  0  0  0  0  0  # atno 6907 bound_to 6896
  150.7170  134.5175  159.5647 H   0  0  0  0  0  0  0  0  0  0  0  0  # atno 6908 bound_to 6896
  152.2695  134.7949  160.0467 H   0  0  0  0  0  0  0  0  0  0  0  0  # atno 6909 bound_to 6896
  146.2434  140.1148  142.8342 H   0  0  0  0  0  0  0  0  0  0  0  0  # atno 7974 bound_to 7965
  156.3000  140.2488  156.3470 H   0  0  0  0  0  0  0  0  0  0  0  0  # atno 8008 bound_to 7997
  154.9001  140.0406  157.1908 H   0  0  0  0  0  0  0  0  0  0  0  0  # atno 8009 bound_to 7997
  154.8509  140.2905  155.5603 H   0  0  0  0  0  0  0  0  0  0  0  0  # atno 8010 bound_to 7997
  140.3518  143.2887  151.9717 H   0  0  0  0  0  0  0  0  0  0  0  0  # atno 10167 bound_to 10162
  157.4295  130.8016  149.7589 H   0  0  0  0  0  0  0  0  0  0  0  0  # atno 10718 bound_to 10713
  153.3882  135.3888  155.1904 H   0  0  0  0  0  0  0  0  0  0  0  0  # atno 10763 bound_to 10752
  154.8716  135.3742  154.4771 H   0  0  0  0  0  0  0  0  0  0  0  0  # atno 10764 bound_to 10752
  153.5255  135.7086  153.5771 H   0  0  0  0  0  0  0  0  0  0  0  0  # atno 10765 bound_to 10752
  141.1523  133.7816  157.0010 H   0  0  0  0  0  0  0  0  0  0  0  0  # atno 11005 bound_to 11000
  145.0456  140.8979  143.5026 LP  0  0  0  0  0  0  0  0  0  0  0  0  # atno 17320 bound_to 7965
  145.1237  139.2677  143.5575 LP  0  0  0  0  0  0  0  0  0  0  0  0  # atno 17321 bound_to 7965
  139.4825  144.6069  151.7505 LP  0  0  0  0  0  0  0  0  0  0  0  0  # atno 17342 bound_to 10162
  140.5211  144.0877  150.6023 LP  0  0  0  0  0  0  0  0  0  0  0  0  # atno 17343 bound_to 10162
  155.9908  130.3942  150.3012 LP  0  0  0  0  0  0  0  0  0  0  0  0  # atno 17370 bound_to 10713
  157.1168  131.0236  151.3026 LP  0  0  0  0  0  0  0  0  0  0  0  0  # atno 17371 bound_to 10713
  140.0940  134.9575  157.1821 LP  0  0  0  0  0  0  0  0  0  0  0  0  # atno 17394 bound_to 11000
  140.3407  134.2707  155.7212 LP  0  0  0  0  0  0  0  0  0  0  0  0  # atno 17395 bound_to 11000

$$$$
