AV-unprocessed.smi:242|AV-procd|sdf|1845|dock9
  -GOLD-   2262020463D 1   1.00000     0.00000
 Structure written by MMmdl.
 58 61  0  0  0  0  0  0  0  0  2 V2000
  152.1852  144.2518  159.7937 C   0  0  0  0  0  0  0  0  0  0  0  0
  152.3285  143.4133  158.5089 C   0  0  0  0  0  0  0  0  0  0  0  0
  152.3938  144.3509  157.2882 C   0  0  0  0  0  0  0  0  0  0  0  0
  151.2217  142.4255  158.3673 N   0  3  1  0  0  0  0  0  0  0  0  0
  149.8516  142.9950  158.4419 C   0  0  0  0  0  0  0  0  0  0  0  0
  149.0166  142.3004  157.3593 C   0  0  0  0  0  0  0  0  0  0  0  0
  149.8382  141.0637  156.9844 C   0  0  1  0  0  0  0  0  0  0  0  0
  149.5619  140.5233  155.6516 N   0  0  0  0  0  0  0  0  0  0  0  0
  149.7174  141.4386  154.5275 C   0  0  0  0  0  0  0  0  0  0  0  0
  150.1535  139.3350  155.3996 C   0  0  0  0  0  0  0  0  0  0  0  0
  151.3051  139.3543  154.6854 N   0  0  0  0  0  0  0  0  0  0  0  0
  151.9271  138.2075  154.3940 C   0  0  0  0  0  0  0  0  0  0  0  0
  151.5733  136.9605  154.7136 N   0  0  0  0  0  0  0  0  0  0  0  0
  150.4161  136.9415  155.4358 C   0  0  0  0  0  0  0  0  0  0  0  0
  149.6483  138.0742  155.8246 C   0  0  0  0  0  0  0  0  0  0  0  0
  148.5389  137.6690  156.5567 N   0  0  0  0  0  0  0  0  0  0  0  0
  148.6455  136.3688  156.5986 C   0  0  0  0  0  0  0  0  0  0  0  0
  149.7363  135.8467  155.9399 N   0  0  0  0  0  0  0  0  0  0  0  0
  150.0931  134.4415  155.8177 C   0  0  0  0  0  0  0  0  0  0  0  0
  148.9823  133.5626  155.1900 C   0  0  0  0  0  0  0  0  0  0  0  0
  147.9012  133.5045  156.1048 O   0  0  0  0  0  0  0  0  0  0  0  0
  148.4770  134.1938  153.8769 C   0  0  0  0  0  0  0  0  0  0  0  0
  147.5007  133.2711  153.1258 C   0  0  0  0  0  0  0  0  0  0  0  0
  148.1108  132.0085  152.8894 O   0  0  0  0  0  0  0  0  0  0  0  0
  148.4244  131.3194  154.0934 C   0  0  0  0  0  0  0  0  0  0  0  0
  149.4557  132.1194  154.9092 C   0  0  0  0  0  0  0  0  0  0  0  0
  151.2645  141.5866  157.1497 C   0  0  0  0  0  0  0  0  0  0  0  0
  152.9765  144.9991  159.8612 H   0  0  0  0  0  0  0  0  0  0  0  0
  152.2559  143.6398  160.6928 H   0  0  0  0  0  0  0  0  0  0  0  0
  151.2311  144.7793  159.8199 H   0  0  0  0  0  0  0  0  0  0  0  0
  153.2684  142.8623  158.5699 H   0  0  0  0  0  0  0  0  0  0  0  0
  153.1881  145.0889  157.4044 H   0  0  0  0  0  0  0  0  0  0  0  0
  151.4573  144.8939  157.1563 H   0  0  0  0  0  0  0  0  0  0  0  0
  152.5978  143.8108  156.3638 H   0  0  0  0  0  0  0  0  0  0  0  0
  149.4453  142.8037  159.4355 H   0  0  0  0  0  0  0  0  0  0  0  0
  149.8421  144.0736  158.2797 H   0  0  0  0  0  0  0  0  0  0  0  0
  148.0105  142.0536  157.7008 H   0  0  0  0  0  0  0  0  0  0  0  0
  148.9216  142.9632  156.4974 H   0  0  0  0  0  0  0  0  0  0  0  0
  149.6691  140.2860  157.7306 H   0  0  0  0  0  0  0  0  0  0  0  0
  149.6240  140.9176  153.5733 H   0  0  0  0  0  0  0  0  0  0  0  0
  150.6917  141.9282  154.5566 H   0  0  0  0  0  0  0  0  0  0  0  0
  148.9471  142.2092  154.5568 H   0  0  0  0  0  0  0  0  0  0  0  0
  152.8381  138.3026  153.8215 H   0  0  0  0  0  0  0  0  0  0  0  0
  147.9215  135.7485  157.1071 H   0  0  0  0  0  0  0  0  0  0  0  0
  151.0089  134.3717  155.2290 H   0  0  0  0  0  0  0  0  0  0  0  0
  150.3455  134.0714  156.8123 H   0  0  0  0  0  0  0  0  0  0  0  0
  147.0964  133.4261  155.6154 H   0  0  0  0  0  0  0  0  0  0  0  0
  148.0051  135.1579  154.0718 H   0  0  0  0  0  0  0  0  0  0  0  0
  149.3271  134.3976  153.2245 H   0  0  0  0  0  0  0  0  0  0  0  0
  146.5718  133.1416  153.6835 H   0  0  0  0  0  0  0  0  0  0  0  0
  147.2324  133.7152  152.1672 H   0  0  0  0  0  0  0  0  0  0  0  0
  147.5164  131.1439  154.6723 H   0  0  0  0  0  0  0  0  0  0  0  0
  148.8299  130.3398  153.8405 H   0  0  0  0  0  0  0  0  0  0  0  0
  150.3916  132.1505  154.3500 H   0  0  0  0  0  0  0  0  0  0  0  0
  149.6709  131.5921  155.8392 H   0  0  0  0  0  0  0  0  0  0  0  0
  151.5432  142.1988  156.2895 H   0  0  0  0  0  0  0  0  0  0  0  0
  151.9897  140.7779  157.2456 H   0  0  0  0  0  0  0  0  0  0  0  0
  151.2972  141.7842  159.1439 H   0  0  0  0  0  0  0  0  0  0  0  0
  1  2  1  0  0  0  0
  1 28  1  0  0  0  0
  1 29  1  0  0  0  0
  1 30  1  0  0  0  0
  2  3  1  0  0  0  0
  2  4  1  0  0  0  0
  2 31  1  0  0  0  0
  3 32  1  0  0  0  0
  3 33  1  0  0  0  0
  3 34  1  0  0  0  0
  4 27  1  0  0  0  0
  4  5  1  0  0  0  0
  4 58  1  0  0  0  0
  5  6  1  0  0  0  0
  5 35  1  0  0  0  0
  5 36  1  0  0  0  0
  6  7  1  0  0  0  0
  6 37  1  0  0  0  0
  6 38  1  0  0  0  0
  7  8  1  0  0  0  0
  7 27  1  0  0  0  0
  7 39  1  0  0  0  0
  8  9  1  0  0  0  0
  8 10  1  0  0  0  0
  9 40  1  0  0  0  0
  9 41  1  0  0  0  0
  9 42  1  0  0  0  0
 10 15  1  0  0  0  0
 10 11  2  0  0  0  0
 11 12  1  0  0  0  0
 12 13  2  0  0  0  0
 12 43  1  0  0  0  0
 13 14  1  0  0  0  0
 14 18  1  0  0  0  0
 14 15  2  0  0  0  0
 15 16  1  0  0  0  0
 16 17  2  0  0  0  0
 17 18  1  0  0  0  0
 17 44  1  0  0  0  0
 18 19  1  0  0  0  0
 19 20  1  0  0  0  0
 19 45  1  0  0  0  0
 19 46  1  0  0  0  0
 20 26  1  0  0  0  0
 20 21  1  0  0  0  0
 20 22  1  0  0  0  0
 21 47  1  0  0  0  0
 22 23  1  0  0  0  0
 22 48  1  0  0  0  0
 22 49  1  0  0  0  0
 23 24  1  0  0  0  0
 23 50  1  0  0  0  0
 23 51  1  0  0  0  0
 24 25  1  0  0  0  0
 25 26  1  0  0  0  0
 25 52  1  0  0  0  0
 25 53  1  0  0  0  0
 26 54  1  0  0  0  0
 26 55  1  0  0  0  0
 27 56  1  0  0  0  0
 27 57  1  0  0  0  0
M  CHG  1   4   1
M  END
> <s_m_source_file>
AV-unprocessed.smi

> <i_m_source_file_index>
242

> <i_lp_mmshare_version>
43012

> <i_f3d_flags>
0

> <s_epik_input>
W0NIM11bQ0hdKFtDSDNdKU4xW0NIMl1bQ0gyXVtDQEhdKFtDSDJdMSlOKFtDSDNdKWMobltjSF1uMiljKGMyMyluW2NIXW4zW0NIMl1DNChbT0hdKVtDSDJdW0NIMl1PW0NIMl1bQ0gyXTQ=

> <s_epik_cmdline>
J2VwaWtfcHl0aG9uJywgJy1waCcsICc3LjAnLCAnLXRuJywgJzgnLCAnLW1hJywgJzIwMCcsICctbWV0YWxfYmluZGluZycsICctaW1hZScsICc8aW5maWxlLm1hZT4nLCAnLW9tYWUnLCAnPG91dGZpbGUubWFlPic=

> <r_lp_tautomer_probability>
1

> <r_epik_Ionization_Penalty>
0.000825961

> <r_epik_Ionization_Penalty_Charging>
0.00034898

> <r_epik_Ionization_Penalty_Neutral>
0.000476981

> <r_epik_State_Penalty>
-0

> <r_epik_Charging_Adjusted_Penalty>
0.00034898

> <i_epik_Tot_Q>
1

> <i_epik_Tot_abs_Q>
1

> <r_epik_Metal_State_Penalty>
-0

> <b_epik_Metal_Only>
0

> <s_lp_Force_Field>
OPLS_2005

> <r_lp_Energy>
46.4754

> <b_lp_Chiralities_Consistent>
1

> <s_lp_Variant>
AV-unprocessed.smi:242-2

> <Gold.Version>
5.8.1

> <Gold.Id.Protein>
6NUR|6NUR_protein|mol2

> <Gold.PLP.Fitness>
48.4419

> <Gold.PLP.PLP>
-43.6204

> <Gold.PLP.part.hbond>
-2.0000

> <Gold.PLP.part.metal>
0.0000

> <Gold.PLP.part.buried>
-5.7742

> <Gold.PLP.part.nonpolar>
-34.8955

> <Gold.PLP.part.repulsive>
0.9993

> <Gold.PLP.ligand.clash>
0.0000

> <Gold.PLP.ligand.torsion>
0.7993

> <Gold.PLP.Chemscore.Hbond>
2.0000

> <Gold.PLP.Chemscore.CHOScore>
0.0000

> <Gold.PLP.Chemscore.Metal>
0.0000

> <Gold.Chemscore.Hbonds>
donor molecule, donor type, donor heavy atom, donor atom, acceptor molecule, acceptor atom, score
      P1  H  7989  7998       L1    11  1.00
      P1  H 10752 10765       L1    13  1.00

> <Gold.PLP.Chemscore.Internal.Correction>
0.4200

> <Gold.Rescore>
     Score         DG    S(hbond)    S(metal)    S(lipo)     H(rot)  DE(clash)    DE(int)     intcor
     13.84     -16.06       1.70        0.00      96.56       2.50       0.36       1.87       ----

> <Gold.Chemscore.Fitness>
13.8359

> <Gold.Chemscore.DG>
-16.0621

> <Gold.Chemscore.ZeroCoef>
-5.4800

> <Gold.Chemscore.Hbond>
1.7015

> <Gold.Chemscore.Metal>
0.0000

> <Gold.Chemscore.Lipo>
96.5641

> <Gold.Chemscore.Internal_Hbond>
0.0000

> <Gold.Chemscore.DEClash>
0.3603

> <Gold.Chemscore.DEInternal>
1.8658

> <Gold.Chemscore.Rot>
2.4996

> <Gold.Chemscore.Internal.Correction>
   9.000000E+99

> <Gold.Chemscore.Hbonds>
donor molecule, donor type, donor heavy atom, donor atom, acceptor molecule, acceptor atom, score
      P1  H  7989  7998       L1    11  0.89
      P1  H 10752 10765       L1    13  0.92

> <Gold.Chemscore.Hbond.Weighted>
-5.6830

> <Gold.Chemscore.Metal.Weighted>
-0.0000

> <Gold.Chemscore.Lipo.Weighted>
-11.2980

> <Gold.Chemscore.Internal_Hbond.Weighted>
0.0000

> <Gold.Chemscore.DEClash.Weighted>
0.3603

> <Gold.Chemscore.DEInternal.Weighted>
1.8658

> <Gold.Chemscore.Rot.Weighted>
6.3990

> <Gold.Chemscore.Internal.Correction.Weighted>
   9.000000E+99

> <Gold.Protein.RotatedTorsions>
[ 6907 6896 6895 6894 ] final -151.82 input  -60.11 | X-H torsion
[ 7974 7965 7964 7962 ] final -148.84 input  175.53 | X-H torsion
[ 8008 7997 7996 7995 ] final   -6.60 input   59.86 | X-H torsion
[ 10167 10162 10161 10158 ] final -152.93 input  -65.29 | X-H torsion
[ 10718 10713 10712 10709 ] final  -12.84 input   66.30 | X-H torsion
[ 10763 10752 10751 10750 ] final  174.12 input  -60.55 | X-H torsion
[ 11005 11000 10999 10996 ] final  -99.97 input  -57.11 | X-H torsion

> <Gold.Protein.ActiveResidues>
 VAL166  LYS551  ARG553  GLY616  TRP617  ASP618  TYR619  PRO620  LYS621  CYS622 
 ASP623  PHE694  ASN695  SER759  ASP760  ASP761  ALA762  ILE779  LEU786  VAL792 
 PHE793  MET794  SER795  GLU796  ALA797  LYS798  CYS799  TRP800  GLU811  SER814 

> <Gold.Protein.RotatedAtoms>
  151.2187  133.4514  159.2599 H   0  0  0  0  0  0  0  0  0  0  0  0  # atno 6907 bound_to 6896
  151.0906  134.9913  159.8411 H   0  0  0  0  0  0  0  0  0  0  0  0  # atno 6908 bound_to 6896
  152.5434  134.2121  159.8807 H   0  0  0  0  0  0  0  0  0  0  0  0  # atno 6909 bound_to 6896
  144.8004  140.5143  143.5711 H   0  0  0  0  0  0  0  0  0  0  0  0  # atno 7974 bound_to 7965
  154.5921  140.2428  155.7907 H   0  0  0  0  0  0  0  0  0  0  0  0  # atno 8008 bound_to 7997
  156.2254  140.2984  156.0008 H   0  0  0  0  0  0  0  0  0  0  0  0  # atno 8009 bound_to 7997
  155.2356  140.0405  157.2958 H   0  0  0  0  0  0  0  0  0  0  0  0  # atno 8010 bound_to 7997
  139.7139  143.9064  152.2478 H   0  0  0  0  0  0  0  0  0  0  0  0  # atno 10167 bound_to 10162
  156.6388  130.4922  149.6102 H   0  0  0  0  0  0  0  0  0  0  0  0  # atno 10718 bound_to 10713
  154.4495  135.2764  155.1791 H   0  0  0  0  0  0  0  0  0  0  0  0  # atno 10763 bound_to 10752
  154.3623  135.6126  153.5701 H   0  0  0  0  0  0  0  0  0  0  0  0  # atno 10764 bound_to 10752
  152.9846  135.5837  154.4837 H   0  0  0  0  0  0  0  0  0  0  0  0  # atno 10765 bound_to 10752
  141.1288  133.8363  157.1042 H   0  0  0  0  0  0  0  0  0  0  0  0  # atno 11005 bound_to 11000
  145.5567  139.1478  143.3364 LP  0  0  0  0  0  0  0  0  0  0  0  0  # atno 17320 bound_to 7965
  146.2284  140.5704  142.8986 LP  0  0  0  0  0  0  0  0  0  0  0  0  # atno 17321 bound_to 7965
  139.8941  144.6949  150.8738 LP  0  0  0  0  0  0  0  0  0  0  0  0  # atno 17342 bound_to 10162
  140.7739  143.3564  151.1914 LP  0  0  0  0  0  0  0  0  0  0  0  0  # atno 17343 bound_to 10162
  156.2175  130.6717  151.1334 LP  0  0  0  0  0  0  0  0  0  0  0  0  # atno 17370 bound_to 10713
  157.7177  131.0700  150.6261 LP  0  0  0  0  0  0  0  0  0  0  0  0  # atno 17371 bound_to 10713
  140.0315  134.9899  157.0789 LP  0  0  0  0  0  0  0  0  0  0  0  0  # atno 17394 bound_to 11000
  140.4278  134.1813  155.7167 LP  0  0  0  0  0  0  0  0  0  0  0  0  # atno 17395 bound_to 11000

$$$$
