AV-unprocessed.smi:2474|AV-procd|sdf|9754|dock5
  -GOLD-   2272013393D 1   1.00000     0.00000
 Structure written by MMmdl.
 40 41  0  0  0  0  0  0  0  0  1 V2000
  153.0466  139.2766  159.7795 C   0  0  0  0  0  0  0  0  0  0  0  0
  152.8800  140.7570  159.8376 C   0  0  0  0  0  0  0  0  0  0  0  0
  153.3674  141.6207  160.7868 C   0  0  0  0  0  0  0  0  0  0  0  0
  153.0528  142.9596  160.5463 N   0  0  0  0  0  0  0  0  0  0  0  0
  152.3340  143.1247  159.4321 C   0  0  0  0  0  0  0  0  0  0  0  0
  151.9271  144.4640  158.8931 C   0  0  1  0  0  0  0  0  0  0  0  0
  151.2995  144.3576  157.4957 C   0  0  0  0  0  0  0  0  0  0  0  0
  151.0645  145.2823  159.8812 C   0  0  0  0  0  0  0  0  0  0  0  0
  149.6537  145.2893  159.4988 N   0  0  0  0  0  0  0  0  0  0  0  0
  148.6338  144.9314  160.2917 C   0  0  0  0  0  0  0  0  0  0  0  0
  148.7670  144.4285  161.4074 O   0  0  0  0  0  0  0  0  0  0  0  0
  147.4507  145.2464  159.7480 N   0  0  0  0  0  0  0  0  0  0  0  0
  146.1649  145.1479  160.4317 C   0  0  1  0  0  0  0  0  0  0  0  0
  145.0143  145.2884  159.4111 C   0  0  0  0  0  0  0  0  0  0  0  0
  143.6274  145.2403  160.0698 C   0  0  0  0  0  0  0  0  0  0  0  0
  143.3736  143.9153  160.8020 C   0  0  0  0  0  0  0  0  0  0  0  0
  144.5615  143.6722  162.1503 S   0  0  0  0  0  0  0  0  0  0  0  0
  146.0945  143.8115  161.1905 C   0  0  0  0  0  0  0  0  0  0  0  0
  151.9857  141.6087  158.6066 S   0  0  0  0  0  0  0  0  0  0  0  0
  153.6555  138.9171  160.6094 H   0  0  0  0  0  0  0  0  0  0  0  0
  153.5352  138.9792  158.8514 H   0  0  0  0  0  0  0  0  0  0  0  0
  152.0793  138.7764  159.8296 H   0  0  0  0  0  0  0  0  0  0  0  0
  153.9537  141.3708  161.6587 H   0  0  0  0  0  0  0  0  0  0  0  0
  152.8529  145.0255  158.7603 H   0  0  0  0  0  0  0  0  0  0  0  0
  151.9748  143.8605  156.7990 H   0  0  0  0  0  0  0  0  0  0  0  0
  151.0746  145.3445  157.0908 H   0  0  0  0  0  0  0  0  0  0  0  0
  150.3689  143.7898  157.5211 H   0  0  0  0  0  0  0  0  0  0  0  0
  151.1391  144.8529  160.8806 H   0  0  0  0  0  0  0  0  0  0  0  0
  151.4464  146.3017  159.9599 H   0  0  0  0  0  0  0  0  0  0  0  0
  149.4332  145.6850  158.5966 H   0  0  0  0  0  0  0  0  0  0  0  0
  147.4447  145.6554  158.8253 H   0  0  0  0  0  0  0  0  0  0  0  0
  146.0948  145.9565  161.1620 H   0  0  0  0  0  0  0  0  0  0  0  0
  145.1104  146.2329  158.8739 H   0  0  0  0  0  0  0  0  0  0  0  0
  145.0880  144.5036  158.6571 H   0  0  0  0  0  0  0  0  0  0  0  0
  143.5196  146.0737  160.7651 H   0  0  0  0  0  0  0  0  0  0  0  0
  142.8633  145.3804  159.3047 H   0  0  0  0  0  0  0  0  0  0  0  0
  142.3661  143.9009  161.2179 H   0  0  0  0  0  0  0  0  0  0  0  0
  143.4458  143.0769  160.1084 H   0  0  0  0  0  0  0  0  0  0  0  0
  146.1533  142.9721  160.4966 H   0  0  0  0  0  0  0  0  0  0  0  0
  146.9363  143.7186  161.8775 H   0  0  0  0  0  0  0  0  0  0  0  0
  1  2  1  0  0  0  0
  1 20  1  0  0  0  0
  1 21  1  0  0  0  0
  1 22  1  0  0  0  0
  2 19  1  0  0  0  0
  2  3  2  0  0  0  0
  3  4  1  0  0  0  0
  3 23  1  0  0  0  0
  4  5  2  0  0  0  0
  5  6  1  0  0  0  0
  5 19  1  0  0  0  0
  6  7  1  0  0  0  0
  6  8  1  0  0  0  0
  6 24  1  0  0  0  0
  7 25  1  0  0  0  0
  7 26  1  0  0  0  0
  7 27  1  0  0  0  0
  8  9  1  0  0  0  0
  8 28  1  0  0  0  0
  8 29  1  0  0  0  0
  9 10  1  0  0  0  0
  9 30  1  0  0  0  0
 10 11  2  0  0  0  0
 10 12  1  0  0  0  0
 12 13  1  0  0  0  0
 12 31  1  0  0  0  0
 13 18  1  0  0  0  0
 13 14  1  0  0  0  0
 13 32  1  0  0  0  0
 14 15  1  0  0  0  0
 14 33  1  0  0  0  0
 14 34  1  0  0  0  0
 15 16  1  0  0  0  0
 15 35  1  0  0  0  0
 15 36  1  0  0  0  0
 16 17  1  0  0  0  0
 16 37  1  0  0  0  0
 16 38  1  0  0  0  0
 17 18  1  0  0  0  0
 18 39  1  0  0  0  0
 18 40  1  0  0  0  0
M  END
> <s_m_source_file>
AV-unprocessed.smi

> <i_m_source_file_index>
2474

> <i_lp_mmshare_version>
43012

> <i_f3d_flags>
0

> <s_epik_input>
W0NIM11jMVtjSF1uYyhzMSlbQ0BIXShbQ0gzXSlbQ0gyXVtOSF1DKD1PKVtOSF1bQ0BASF0yW0NIMl1bQ0gyXVtDSDJdU1tDSDJdMg==

> <s_epik_cmdline>
J2VwaWtfcHl0aG9uJywgJy1waCcsICc3LjAnLCAnLXRuJywgJzgnLCAnLW1hJywgJzIwMCcsICctbWV0YWxfYmluZGluZycsICctaW1hZScsICc8aW5maWxlLm1hZT4nLCAnLW9tYWUnLCAnPG91dGZpbGUubWFlPic=

> <r_epik_Ionization_Penalty>
0.000644338

> <r_epik_Ionization_Penalty_Charging>
0

> <r_epik_Ionization_Penalty_Neutral>
0.000644338

> <r_epik_State_Penalty>
0.000374131

> <r_epik_Charging_Adjusted_Penalty>
0.000374131

> <i_epik_Tot_Q>
0

> <i_epik_Tot_abs_Q>
0

> <r_epik_Metal_State_Penalty>
-0

> <b_epik_Metal_Only>
0

> <s_lp_Force_Field>
OPLS_2005

> <r_lp_Energy>
-6.83814

> <b_lp_Chiralities_Consistent>
1

> <s_lp_Variant>
AV-unprocessed.smi:2474-4

> <Gold.Version>
5.8.1

> <Gold.Id.Protein>
6NUR|6NUR_protein|mol2

> <Gold.PLP.Fitness>
49.4824

> <Gold.PLP.PLP>
-43.2813

> <Gold.PLP.part.hbond>
-3.0000

> <Gold.PLP.part.metal>
0.0000

> <Gold.PLP.part.buried>
-6.4756

> <Gold.PLP.part.nonpolar>
-35.2611

> <Gold.PLP.part.repulsive>
0.6097

> <Gold.PLP.ligand.clash>
0.0000

> <Gold.PLP.ligand.torsion>
0.8025

> <Gold.PLP.Chemscore.Hbond>
2.5590

> <Gold.PLP.Chemscore.CHOScore>
0.0000

> <Gold.PLP.Chemscore.Metal>
0.0000

> <Gold.Chemscore.Hbonds>
donor molecule, donor type, donor heavy atom, donor atom, acceptor molecule, acceptor atom, score
      L1  H     9    30       P1  8029  0.86
      L1  H    12    31       P1  8029  1.00
      P1  H  6933  6944       L1    11  0.65

> <Gold.PLP.Chemscore.Internal.Correction>
0.1293

> <Gold.Rescore>
     Score         DG    S(hbond)    S(metal)    S(lipo)     H(rot)  DE(clash)    DE(int)     intcor
     21.12     -22.98       2.59        0.00     107.68       1.46       0.09       1.77       ----

> <Gold.Chemscore.Fitness>
21.1154

> <Gold.Chemscore.DG>
-22.9806

> <Gold.Chemscore.ZeroCoef>
-5.4800

> <Gold.Chemscore.Hbond>
2.5879

> <Gold.Chemscore.Metal>
0.0000

> <Gold.Chemscore.Lipo>
107.6812

> <Gold.Chemscore.Internal_Hbond>
0.0000

> <Gold.Chemscore.DEClash>
0.0938

> <Gold.Chemscore.DEInternal>
1.7714

> <Gold.Chemscore.Rot>
1.4616

> <Gold.Chemscore.Internal.Correction>
   9.000000E+99

> <Gold.Chemscore.Hbonds>
donor molecule, donor type, donor heavy atom, donor atom, acceptor molecule, acceptor atom, score
      L1  H     9    30       P1  8029  0.76
      L1  H    12    31       P1  8029  0.99
      P1  H  6933  6944       L1    11  0.56

> <Gold.Chemscore.Hbond.Weighted>
-8.6435

> <Gold.Chemscore.Metal.Weighted>
-0.0000

> <Gold.Chemscore.Lipo.Weighted>
-12.5987

> <Gold.Chemscore.Internal_Hbond.Weighted>
0.0000

> <Gold.Chemscore.DEClash.Weighted>
0.0938

> <Gold.Chemscore.DEInternal.Weighted>
1.7714

> <Gold.Chemscore.Rot.Weighted>
3.7416

> <Gold.Chemscore.Internal.Correction.Weighted>
   9.000000E+99

> <Gold.Protein.RotatedTorsions>
[ 6907 6896 6895 6894 ] final   11.47 input  -60.11 | X-H torsion
[ 7974 7965 7964 7962 ] final -168.77 input  175.53 | X-H torsion
[ 8008 7997 7996 7995 ] final  -71.37 input   59.86 | X-H torsion
[ 10167 10162 10161 10158 ] final   34.47 input  -65.29 | X-H torsion
[ 10718 10713 10712 10709 ] final   -9.75 input   66.30 | X-H torsion
[ 10763 10752 10751 10750 ] final  158.25 input  -60.55 | X-H torsion
[ 11005 11000 10999 10996 ] final -140.25 input  -57.11 | X-H torsion

> <Gold.Protein.ActiveResidues>
 VAL166  LYS551  ARG553  GLY616  TRP617  ASP618  TYR619  PRO620  LYS621  CYS622 
 ASP623  PHE694  ASN695  SER759  ASP760  ASP761  ALA762  ILE779  LEU786  VAL792 
 PHE793  MET794  SER795  GLU796  ALA797  LYS798  CYS799  TRP800  GLU811  SER814 

> <Gold.Protein.RotatedAtoms>
  151.7549  135.0824  160.0336 H   0  0  0  0  0  0  0  0  0  0  0  0  # atno 6907 bound_to 6896
  152.3392  133.6043  159.5873 H   0  0  0  0  0  0  0  0  0  0  0  0  # atno 6908 bound_to 6896
  150.7469  133.9665  159.3574 H   0  0  0  0  0  0  0  0  0  0  0  0  # atno 6909 bound_to 6896
  144.7197  140.2321  143.6303 H   0  0  0  0  0  0  0  0  0  0  0  0  # atno 7974 bound_to 7965
  154.5083  140.0817  156.7938 H   0  0  0  0  0  0  0  0  0  0  0  0  # atno 8008 bound_to 7997
  155.3844  140.3429  155.4230 H   0  0  0  0  0  0  0  0  0  0  0  0  # atno 8009 bound_to 7997
  156.1542  140.1568  156.8707 H   0  0  0  0  0  0  0  0  0  0  0  0  # atno 8010 bound_to 7997
  140.4312  144.1322  150.6160 H   0  0  0  0  0  0  0  0  0  0  0  0  # atno 10167 bound_to 10162
  156.6835  130.5044  149.5964 H   0  0  0  0  0  0  0  0  0  0  0  0  # atno 10718 bound_to 10713
  154.2131  135.2785  155.2951 H   0  0  0  0  0  0  0  0  0  0  0  0  # atno 10763 bound_to 10752
  154.5762  135.5603  153.7145 H   0  0  0  0  0  0  0  0  0  0  0  0  # atno 10764 bound_to 10752
  153.0059  135.6333  154.2270 H   0  0  0  0  0  0  0  0  0  0  0  0  # atno 10765 bound_to 10752
  140.8440  134.2367  157.4795 H   0  0  0  0  0  0  0  0  0  0  0  0  # atno 11005 bound_to 11000
  145.8401  139.2126  143.1832 LP  0  0  0  0  0  0  0  0  0  0  0  0  # atno 17320 bound_to 7965
  146.0354  140.8217  142.9855 LP  0  0  0  0  0  0  0  0  0  0  0  0  # atno 17321 bound_to 7965
  140.4425  143.2520  151.9454 LP  0  0  0  0  0  0  0  0  0  0  0  0  # atno 17342 bound_to 10162
  139.4785  144.5641  151.8193 LP  0  0  0  0  0  0  0  0  0  0  0  0  # atno 17343 bound_to 10162
  156.1850  130.6523  151.0996 LP  0  0  0  0  0  0  0  0  0  0  0  0  # atno 17370 bound_to 10713
  157.7035  131.0766  150.6743 LP  0  0  0  0  0  0  0  0  0  0  0  0  # atno 17371 bound_to 10713
  139.8703  134.9650  156.4514 LP  0  0  0  0  0  0  0  0  0  0  0  0  # atno 17394 bound_to 11000
  140.8863  133.7880  155.9522 LP  0  0  0  0  0  0  0  0  0  0  0  0  # atno 17395 bound_to 11000

$$$$
