AV-unprocessed.smi:34|AV-procd|sdf|240|dock7
  -GOLD-   2262015593D 1   1.00000     0.00000
 Structure written by MMmdl.
 54 58  0  0  0  0  0  0  0  0  2 V2000
  152.7160  140.1147  158.1213 O   0  0  0  0  0  0  0  0  0  0  0  0
  152.1105  141.1142  157.7284 C   0  0  0  0  0  0  0  0  0  0  0  0
  151.4665  141.2887  156.5468 N   0  5  0  0  0  0  0  0  0  0  0  0
  150.8230  140.2579  155.9778 C   0  0  0  0  0  0  0  0  0  0  0  0
  150.6324  140.2246  154.6341 N   0  0  0  0  0  0  0  0  0  0  0  0
  149.9874  139.1981  154.0680 C   0  0  0  0  0  0  0  0  0  0  0  0
  149.4533  138.1190  154.6479 N   0  0  0  0  0  0  0  0  0  0  0  0
  149.6285  138.1456  156.0011 C   0  0  0  0  0  0  0  0  0  0  0  0
  150.2932  139.1742  156.7306 C   0  0  0  0  0  0  0  0  0  0  0  0
  150.2891  138.8951  158.0894 N   0  0  0  0  0  0  0  0  0  0  0  0
  149.6378  137.7346  158.1234 C   0  0  0  0  0  0  0  0  0  0  0  0
  149.2211  137.2210  156.9491 N   0  0  0  0  0  0  0  0  0  0  0  0
  148.4796  135.9441  156.7291 C   0  0  1  0  0  0  0  0  0  0  0  0
  148.7021  135.5394  155.4150 O   0  0  0  0  0  0  0  0  0  0  0  0
  148.7206  134.1212  155.3827 C   0  0  1  0  0  0  0  0  0  0  0  0
  149.3963  133.6090  154.1050 C   0  0  0  0  0  0  0  0  0  0  0  0
  148.7418  132.4280  153.6706 O   0  0  0  0  0  0  0  0  0  0  0  0
  147.5779  132.5118  152.9970 C   0  0  0  0  0  0  0  0  0  0  0  0
  147.0248  133.5784  152.7204 O   0  0  0  0  0  0  0  0  0  0  0  0
  147.0276  131.1776  152.6198 C   0  0  0  0  0  0  0  0  0  0  0  0
  145.8133  131.1082  151.8976 C   0  0  0  0  0  0  0  0  0  0  0  0
  145.2690  129.8631  151.5269 C   0  0  0  0  0  0  0  0  0  0  0  0
  145.9322  128.6718  151.8741 C   0  0  0  0  0  0  0  0  0  0  0  0
  147.1408  128.7272  152.5927 C   0  0  0  0  0  0  0  0  0  0  0  0
  147.6868  129.9716  152.9643 C   0  0  0  0  0  0  0  0  0  0  0  0
  149.4535  133.7555  156.6749 C   0  0  1  0  0  0  0  0  0  0  0  0
  150.7754  133.8289  156.5102 F   0  0  0  0  0  0  0  0  0  0  0  0
  149.0027  134.8314  157.6560 C   0  0  2  0  0  0  0  0  0  0  0  0
  147.9837  134.3194  158.4907 O   0  0  0  0  0  0  0  0  0  0  0  0
  152.1047  142.3452  158.5941 C   0  0  0  0  0  0  0  0  0  0  0  0
  151.7597  143.5954  158.0316 C   0  0  0  0  0  0  0  0  0  0  0  0
  151.7711  144.7627  158.8196 C   0  0  0  0  0  0  0  0  0  0  0  0
  152.1386  144.6941  160.1765 C   0  0  0  0  0  0  0  0  0  0  0  0
  152.4984  143.4574  160.7440 C   0  0  0  0  0  0  0  0  0  0  0  0
  152.4857  142.2892  159.9571 C   0  0  0  0  0  0  0  0  0  0  0  0
  149.8829  139.2497  152.9943 H   0  0  0  0  0  0  0  0  0  0  0  0
  149.4559  137.2259  159.0586 H   0  0  0  0  0  0  0  0  0  0  0  0
  147.4275  136.1897  156.8841 H   0  0  0  0  0  0  0  0  0  0  0  0
  147.6940  133.7543  155.4416 H   0  0  0  0  0  0  0  0  0  0  0  0
  149.3714  134.3733  153.3266 H   0  0  0  0  0  0  0  0  0  0  0  0
  150.4428  133.3763  154.3070 H   0  0  0  0  0  0  0  0  0  0  0  0
  145.2857  132.0092  151.6198 H   0  0  0  0  0  0  0  0  0  0  0  0
  144.3411  129.8226  150.9756 H   0  0  0  0  0  0  0  0  0  0  0  0
  145.5146  127.7172  151.5898 H   0  0  0  0  0  0  0  0  0  0  0  0
  147.6510  127.8134  152.8598 H   0  0  0  0  0  0  0  0  0  0  0  0
  148.6160  129.9783  153.5153 H   0  0  0  0  0  0  0  0  0  0  0  0
  149.2389  132.7394  157.0082 H   0  0  0  0  0  0  0  0  0  0  0  0
  149.8286  135.1843  158.2760 H   0  0  0  0  0  0  0  0  0  0  0  0
  147.1766  134.2998  157.9993 H   0  0  0  0  0  0  0  0  0  0  0  0
  151.4769  143.6649  156.9911 H   0  0  0  0  0  0  0  0  0  0  0  0
  151.4985  145.7113  158.3814 H   0  0  0  0  0  0  0  0  0  0  0  0
  152.1484  145.5893  160.7802 H   0  0  0  0  0  0  0  0  0  0  0  0
  152.7866  143.4037  161.7834 H   0  0  0  0  0  0  0  0  0  0  0  0
  152.7743  141.3513  160.4092 H   0  0  0  0  0  0  0  0  0  0  0  0
  1  2  2  0  0  0  0
  2  3  1  0  0  0  0
  2 30  1  0  0  0  0
  3  4  1  0  0  0  0
  4  9  1  0  0  0  0
  4  5  2  0  0  0  0
  5  6  1  0  0  0  0
  6  7  2  0  0  0  0
  6 36  1  0  0  0  0
  7  8  1  0  0  0  0
  8 12  1  0  0  0  0
  8  9  2  0  0  0  0
  9 10  1  0  0  0  0
 10 11  2  0  0  0  0
 11 12  1  0  0  0  0
 11 37  1  0  0  0  0
 12 13  1  0  0  0  0
 13 28  1  0  0  0  0
 13 14  1  0  0  0  0
 13 38  1  0  0  0  0
 14 15  1  0  0  0  0
 15 16  1  0  0  0  0
 15 26  1  0  0  0  0
 15 39  1  0  0  0  0
 16 17  1  0  0  0  0
 16 40  1  0  0  0  0
 16 41  1  0  0  0  0
 17 18  1  0  0  0  0
 18 19  2  0  0  0  0
 18 20  1  0  0  0  0
 20 25  1  0  0  0  0
 20 21  2  0  0  0  0
 21 22  1  0  0  0  0
 21 42  1  0  0  0  0
 22 23  2  0  0  0  0
 22 43  1  0  0  0  0
 23 24  1  0  0  0  0
 23 44  1  0  0  0  0
 24 25  2  0  0  0  0
 24 45  1  0  0  0  0
 25 46  1  0  0  0  0
 26 27  1  0  0  0  0
 26 28  1  0  0  0  0
 26 47  1  0  0  0  0
 28 29  1  0  0  0  0
 28 48  1  0  0  0  0
 29 49  1  0  0  0  0
 30 35  1  0  0  0  0
 30 31  2  0  0  0  0
 31 32  1  0  0  0  0
 31 50  1  0  0  0  0
 32 33  2  0  0  0  0
 32 51  1  0  0  0  0
 33 34  1  0  0  0  0
 33 52  1  0  0  0  0
 34 35  2  0  0  0  0
 34 53  1  0  0  0  0
 35 54  1  0  0  0  0
M  CHG  1   3  -1
M  END
> <s_m_source_file>
AV-unprocessed.smi

> <i_m_source_file_index>
34

> <i_lp_mmshare_version>
43012

> <i_f3d_flags>
0

> <s_epik_input>
W2NIXTFbY0hdW2NIXVtjSF1bY0hdYzFDKD1PKVtOSF1jKG5bY0hdbjIpYyhjMjMpbltjSF1uM1tDQEBIXTRPW0NASF0oW0NAQEhdKEYpW0NASF00W09IXSlbQ0gyXU9DKD1PKWM1W2NIXVtjSF1bY0hdW2NIXVtjSF01

> <s_epik_cmdline>
J2VwaWtfcHl0aG9uJywgJy1waCcsICc3LjAnLCAnLXRuJywgJzgnLCAnLW1hJywgJzIwMCcsICctbWV0YWxfYmluZGluZycsICctaW1hZScsICc8aW5maWxlLm1hZT4nLCAnLW9tYWUnLCAnPG91dGZpbGUubWFlPic=

> <r_lp_tautomer_probability>
1

> <r_epik_Ionization_Penalty>
4.33227

> <r_epik_Ionization_Penalty_Charging>
3.41027

> <r_epik_Ionization_Penalty_Neutral>
0.922001

> <r_epik_State_Penalty>
3.41358

> <r_epik_Charging_Adjusted_Penalty>
6.82385

> <i_epik_Tot_Q>
-1

> <i_epik_Tot_abs_Q>
1

> <r_epik_Metal_State_Penalty>
0.496292

> <b_epik_Metal_Only>
1

> <s_epik_Chemistry_Notes>
This compound has an ester and may undergo hydrolysis at high or low pH. This compound contains an acetal/aminal-like group ( X-CH(R)-Y where X, Y are N, S, or O) that may be acid/base labile, releasing an aldehyde.

> <s_lp_Force_Field>
OPLS_2005

> <r_lp_Energy>
44.0615

> <b_lp_Chiralities_Consistent>
1

> <s_lp_Variant>
AV-unprocessed.smi:34-26

> <Gold.Version>
5.8.1

> <Gold.Id.Protein>
6NUR|6NUR_protein|mol2

> <Gold.PLP.Fitness>
59.1697

> <Gold.PLP.PLP>
-53.4033

> <Gold.PLP.part.hbond>
-2.0000

> <Gold.PLP.part.metal>
0.0000

> <Gold.PLP.part.buried>
-4.6809

> <Gold.PLP.part.nonpolar>
-45.4038

> <Gold.PLP.part.repulsive>
0.6080

> <Gold.PLP.ligand.clash>
0.0000

> <Gold.PLP.ligand.torsion>
1.7223

> <Gold.PLP.Chemscore.Hbond>
1.9588

> <Gold.PLP.Chemscore.CHOScore>
1.0000

> <Gold.PLP.Chemscore.Metal>
0.0000

> <Gold.Chemscore.Hbonds>
donor molecule, donor type, donor heavy atom, donor atom, acceptor molecule, acceptor atom, score
      P1  H  7989  7998       L1     5  1.00
      P1  H  7997  8009       L1     1  0.68
      L1  C     6    36       P1  7957  0.94

> <Gold.PLP.Chemscore.Internal.Correction>
0.3349

> <Gold.Rescore>
     Score         DG    S(hbond)    S(metal)    S(lipo)     H(rot)  DE(clash)    DE(int)     intcor
     12.02     -19.85       1.60        0.00     136.04       2.69       0.76       7.07       ----

> <Gold.Chemscore.Fitness>
12.0189

> <Gold.Chemscore.DG>
-19.8524

> <Gold.Chemscore.ZeroCoef>
-5.4800

> <Gold.Chemscore.Hbond>
1.6028

> <Gold.Chemscore.Metal>
0.0000

> <Gold.Chemscore.Lipo>
136.0379

> <Gold.Chemscore.Internal_Hbond>
0.0000

> <Gold.Chemscore.DEClash>
0.7641

> <Gold.Chemscore.DEInternal>
7.0694

> <Gold.Chemscore.Rot>
2.6944

> <Gold.Chemscore.Internal.Correction>
   9.000000E+99

> <Gold.Chemscore.Hbonds>
donor molecule, donor type, donor heavy atom, donor atom, acceptor molecule, acceptor atom, score
      P1  H  7989  7998       L1     5  0.65
      P1  H  7997  8009       L1     1  0.22

> <Gold.Chemscore.Hbond.Weighted>
-5.3535

> <Gold.Chemscore.Metal.Weighted>
-0.0000

> <Gold.Chemscore.Lipo.Weighted>
-15.9164

> <Gold.Chemscore.Internal_Hbond.Weighted>
0.0000

> <Gold.Chemscore.DEClash.Weighted>
0.7641

> <Gold.Chemscore.DEInternal.Weighted>
7.0694

> <Gold.Chemscore.Rot.Weighted>
6.8975

> <Gold.Chemscore.Internal.Correction.Weighted>
   9.000000E+99

> <Gold.Protein.RotatedTorsions>
[ 6907 6896 6895 6894 ] final -112.88 input  -60.11 | X-H torsion
[ 7974 7965 7964 7962 ] final   79.64 input  175.53 | X-H torsion
[ 8008 7997 7996 7995 ] final  169.24 input   59.86 | X-H torsion
[ 10167 10162 10161 10158 ] final -155.88 input  -65.29 | X-H torsion
[ 10718 10713 10712 10709 ] final  136.30 input   66.30 | X-H torsion
[ 10763 10752 10751 10750 ] final  -36.91 input  -60.55 | X-H torsion
[ 11005 11000 10999 10996 ] final  172.82 input  -57.11 | X-H torsion

> <Gold.Protein.ActiveResidues>
 VAL166  LYS551  ARG553  GLY616  TRP617  ASP618  TYR619  PRO620  LYS621  CYS622 
 ASP623  PHE694  ASN695  SER759  ASP760  ASP761  ALA762  ILE779  LEU786  VAL792 
 PHE793  MET794  SER795  GLU796  ALA797  LYS798  CYS799  TRP800  GLU811  SER814 

> <Gold.Protein.RotatedAtoms>
  150.7789  133.9025  159.3345 H   0  0  0  0  0  0  0  0  0  0  0  0  # atno 6907 bound_to 6896
  151.6893  135.0947  160.0240 H   0  0  0  0  0  0  0  0  0  0  0  0  # atno 6908 bound_to 6896
  152.3834  133.6540  159.6215 H   0  0  0  0  0  0  0  0  0  0  0  0  # atno 6909 bound_to 6896
  145.6615  139.2473  143.1920 H   0  0  0  0  0  0  0  0  0  0  0  0  # atno 7974 bound_to 7965
  156.1475  140.1569  156.8824 H   0  0  0  0  0  0  0  0  0  0  0  0  # atno 8008 bound_to 7997
  154.5041  140.0817  156.7895 H   0  0  0  0  0  0  0  0  0  0  0  0  # atno 8009 bound_to 7997
  155.3961  140.3412  155.4256 H   0  0  0  0  0  0  0  0  0  0  0  0  # atno 8010 bound_to 7997
  139.6895  143.9445  152.2378 H   0  0  0  0  0  0  0  0  0  0  0  0  # atno 10167 bound_to 10162
  157.4481  131.1063  151.0066 H   0  0  0  0  0  0  0  0  0  0  0  0  # atno 10718 bound_to 10713
  153.8876  135.6815  153.4762 H   0  0  0  0  0  0  0  0  0  0  0  0  # atno 10763 bound_to 10752
  153.1199  135.4744  154.9175 H   0  0  0  0  0  0  0  0  0  0  0  0  # atno 10764 bound_to 10752
  154.7638  135.3218  154.8279 H   0  0  0  0  0  0  0  0  0  0  0  0  # atno 10765 bound_to 10752
  140.3338  134.7335  157.4153 H   0  0  0  0  0  0  0  0  0  0  0  0  # atno 11005 bound_to 11000
  146.1121  140.7415  142.9498 LP  0  0  0  0  0  0  0  0  0  0  0  0  # atno 17320 bound_to 7965
  144.7087  140.3955  143.7097 LP  0  0  0  0  0  0  0  0  0  0  0  0  # atno 17321 bound_to 7965
  139.9257  144.6772  150.8415 LP  0  0  0  0  0  0  0  0  0  0  0  0  # atno 17342 bound_to 10162
  140.7678  143.3344  151.2341 LP  0  0  0  0  0  0  0  0  0  0  0  0  # atno 17343 bound_to 10162
  157.0906  130.5940  149.5439 LP  0  0  0  0  0  0  0  0  0  0  0  0  # atno 17370 bound_to 10713
  155.9975  130.5047  150.7538 LP  0  0  0  0  0  0  0  0  0  0  0  0  # atno 17371 bound_to 10713
  140.0838  134.5694  155.8513 LP  0  0  0  0  0  0  0  0  0  0  0  0  # atno 17394 bound_to 11000
  141.2056  133.6649  156.6194 LP  0  0  0  0  0  0  0  0  0  0  0  0  # atno 17395 bound_to 11000

$$$$
