AV-unprocessed.smi:1923|AV-procd|sdf|7790|dock3
  -GOLD-   22720 9533D 1   1.00000     0.00000
 Structure written by MMmdl.
 55 57  0  0  0  0  0  0  0  0  2 V2000
  143.9150  132.9294  151.6245 C   0  0  0  0  0  0  0  0  0  0  0  0
  145.4274  133.2059  151.5658 C   0  0  2  0  0  0  0  0  0  0  0  0
  146.0273  133.5329  152.9452 C   0  0  0  0  0  0  0  0  0  0  0  0
  145.6497  134.9461  153.4247 C   0  0  0  0  0  0  0  0  0  0  0  0
  146.0436  135.9767  152.4295 N   0  3  2  0  0  0  0  0  0  0  0  0
  145.8149  137.3561  152.9289 C   0  0  0  0  0  0  0  0  0  0  0  0
  146.4539  138.4228  152.0181 C   0  0  0  0  0  0  0  0  0  0  0  0
  147.7890  138.7929  152.4741 N   0  0  0  0  0  0  0  0  0  0  0  0
  148.0668  139.3660  153.6538 C   0  0  0  0  0  0  0  0  0  0  0  0
  147.2088  139.6186  154.4992 O   0  0  0  0  0  0  0  0  0  0  0  0
  149.3844  139.6010  153.7809 N   0  0  0  0  0  0  0  0  0  0  0  0
  150.0855  140.2076  154.8592 C   0  0  0  0  0  0  0  0  0  0  0  0
  151.3252  139.7562  155.3693 C   0  0  0  0  0  0  0  0  0  0  0  0
  151.9055  140.4384  156.4559 C   0  0  0  0  0  0  0  0  0  0  0  0
  151.2350  141.5517  157.0151 C   0  0  0  0  0  0  0  0  0  0  0  0
  151.8003  142.2497  158.1049 N   0  0  0  0  0  0  0  0  0  0  0  0
  151.3201  143.6042  158.3747 C   0  0  0  0  0  0  0  0  0  0  0  0
  152.2319  144.3047  159.3962 C   0  0  0  0  0  0  0  0  0  0  0  0
  152.3293  143.5118  160.5747 O   0  0  0  0  0  0  0  0  0  0  0  0
  152.9042  142.2371  160.3080 C   0  0  0  0  0  0  0  0  0  0  0  0
  152.0195  141.4622  159.3158 C   0  0  0  0  0  0  0  0  0  0  0  0
  150.0449  141.9783  156.5260 N   0  0  0  0  0  0  0  0  0  0  0  0
  149.4906  141.3201  155.4869 C   0  0  0  0  0  0  0  0  0  0  0  0
  145.4195  135.7215  151.1038 C   0  0  0  0  0  0  0  0  0  0  0  0
  145.7906  134.3248  150.5727 C   0  0  0  0  0  0  0  0  0  0  0  0
  143.3505  133.7940  151.9727 H   0  0  0  0  0  0  0  0  0  0  0  0
  143.6961  132.1005  152.2982 H   0  0  0  0  0  0  0  0  0  0  0  0
  143.5301  132.6595  150.6408 H   0  0  0  0  0  0  0  0  0  0  0  0
  145.8948  132.2859  151.2122 H   0  0  0  0  0  0  0  0  0  0  0  0
  145.7130  132.7911  153.6802 H   0  0  0  0  0  0  0  0  0  0  0  0
  147.1142  133.4582  152.8881 H   0  0  0  0  0  0  0  0  0  0  0  0
  144.5784  135.0125  153.6188 H   0  0  0  0  0  0  0  0  0  0  0  0
  146.1520  135.1411  154.3731 H   0  0  0  0  0  0  0  0  0  0  0  0
  144.7440  137.5275  153.0485 H   0  0  0  0  0  0  0  0  0  0  0  0
  146.2542  137.4577  153.9224 H   0  0  0  0  0  0  0  0  0  0  0  0
  146.5399  138.0379  151.0018 H   0  0  0  0  0  0  0  0  0  0  0  0
  145.8381  139.3204  151.9580 H   0  0  0  0  0  0  0  0  0  0  0  0
  148.5543  138.6160  151.8395 H   0  0  0  0  0  0  0  0  0  0  0  0
  149.9667  139.2718  153.0248 H   0  0  0  0  0  0  0  0  0  0  0  0
  151.8398  138.9005  154.9623 H   0  0  0  0  0  0  0  0  0  0  0  0
  152.8597  140.1066  156.8371 H   0  0  0  0  0  0  0  0  0  0  0  0
  151.2971  144.1873  157.4530 H   0  0  0  0  0  0  0  0  0  0  0  0
  150.2998  143.5566  158.7575 H   0  0  0  0  0  0  0  0  0  0  0  0
  153.2247  144.4782  158.9777 H   0  0  0  0  0  0  0  0  0  0  0  0
  151.8220  145.2804  159.6572 H   0  0  0  0  0  0  0  0  0  0  0  0
  153.9156  142.3571  159.9160 H   0  0  0  0  0  0  0  0  0  0  0  0
  152.9898  141.6846  161.2438 H   0  0  0  0  0  0  0  0  0  0  0  0
  151.0531  141.2429  159.7715 H   0  0  0  0  0  0  0  0  0  0  0  0
  152.4901  140.5050  159.0965 H   0  0  0  0  0  0  0  0  0  0  0  0
  148.5391  141.6993  155.1435 H   0  0  0  0  0  0  0  0  0  0  0  0
  144.3365  135.8249  151.1814 H   0  0  0  0  0  0  0  0  0  0  0  0
  145.7496  136.4664  150.3808 H   0  0  0  0  0  0  0  0  0  0  0  0
  146.8636  134.2948  150.3786 H   0  0  0  0  0  0  0  0  0  0  0  0
  145.3057  134.1487  149.6118 H   0  0  0  0  0  0  0  0  0  0  0  0
  147.0416  135.8791  152.3081 H   0  0  0  0  0  0  0  0  0  0  0  0
  1  2  1  0  0  0  0
  1 26  1  0  0  0  0
  1 27  1  0  0  0  0
  1 28  1  0  0  0  0
  2 25  1  0  0  0  0
  2  3  1  0  0  0  0
  2 29  1  0  0  0  0
  3  4  1  0  0  0  0
  3 30  1  0  0  0  0
  3 31  1  0  0  0  0
  4  5  1  0  0  0  0
  4 32  1  0  0  0  0
  4 33  1  0  0  0  0
  5  6  1  0  0  0  0
  5 24  1  0  0  0  0
  5 55  1  0  0  0  0
  6  7  1  0  0  0  0
  6 34  1  0  0  0  0
  6 35  1  0  0  0  0
  7  8  1  0  0  0  0
  7 36  1  0  0  0  0
  7 37  1  0  0  0  0
  8  9  1  0  0  0  0
  8 38  1  0  0  0  0
  9 10  2  0  0  0  0
  9 11  1  0  0  0  0
 11 12  1  0  0  0  0
 11 39  1  0  0  0  0
 12 23  1  0  0  0  0
 12 13  2  0  0  0  0
 13 14  1  0  0  0  0
 13 40  1  0  0  0  0
 14 15  2  0  0  0  0
 14 41  1  0  0  0  0
 15 16  1  0  0  0  0
 15 22  1  0  0  0  0
 16 21  1  0  0  0  0
 16 17  1  0  0  0  0
 17 18  1  0  0  0  0
 17 42  1  0  0  0  0
 17 43  1  0  0  0  0
 18 19  1  0  0  0  0
 18 44  1  0  0  0  0
 18 45  1  0  0  0  0
 19 20  1  0  0  0  0
 20 21  1  0  0  0  0
 20 46  1  0  0  0  0
 20 47  1  0  0  0  0
 21 48  1  0  0  0  0
 21 49  1  0  0  0  0
 22 23  2  0  0  0  0
 23 50  1  0  0  0  0
 24 25  1  0  0  0  0
 24 51  1  0  0  0  0
 24 52  1  0  0  0  0
 25 53  1  0  0  0  0
 25 54  1  0  0  0  0
M  CHG  1   5   1
M  END
> <s_m_source_file>
AV-unprocessed.smi

> <i_m_source_file_index>
1923

> <i_lp_mmshare_version>
43012

> <i_f3d_flags>
0

> <s_epik_input>
W0NIM11bQ0hdMVtDSDJdW0NIMl1OKFtDSDJdW0NIMl0xKVtDSDJdW0NIMl1bTkhdQyg9TylbTkhdYzJbY0hdW2NIXWMobltjSF0yKU4zW0NIMl1bQ0gyXU9bQ0gyXVtDSDJdMw==

> <s_epik_cmdline>
J2VwaWtfcHl0aG9uJywgJy1waCcsICc3LjAnLCAnLXRuJywgJzgnLCAnLW1hJywgJzIwMCcsICctbWV0YWxfYmluZGluZycsICctaW1hZScsICc8aW5maWxlLm1hZT4nLCAnLW9tYWUnLCAnPG91dGZpbGUubWFlPic=

> <r_lp_tautomer_probability>
1

> <r_epik_Ionization_Penalty>
0.00307683

> <r_epik_Ionization_Penalty_Charging>
0.00139388

> <r_epik_Ionization_Penalty_Neutral>
0.00168296

> <r_epik_State_Penalty>
-0

> <r_epik_Charging_Adjusted_Penalty>
0.00139388

> <i_epik_Tot_Q>
1

> <i_epik_Tot_abs_Q>
1

> <r_epik_Metal_State_Penalty>
-0

> <b_epik_Metal_Only>
0

> <s_lp_Force_Field>
OPLS_2005

> <r_lp_Energy>
36.3694

> <b_lp_Chiralities_Consistent>
1

> <s_lp_Variant>
AV-unprocessed.smi:1923-2

> <Gold.Version>
5.8.1

> <Gold.Id.Protein>
6NUR|6NUR_protein|mol2

> <Gold.PLP.Fitness>
54.5427

> <Gold.PLP.PLP>
-47.1318

> <Gold.PLP.part.hbond>
-4.0000

> <Gold.PLP.part.metal>
0.0000

> <Gold.PLP.part.buried>
-3.9090

> <Gold.PLP.part.nonpolar>
-39.2059

> <Gold.PLP.part.repulsive>
0.8563

> <Gold.PLP.ligand.clash>
0.0000

> <Gold.PLP.ligand.torsion>
0.8408

> <Gold.PLP.Chemscore.Hbond>
2.9084

> <Gold.PLP.Chemscore.CHOScore>
0.0000

> <Gold.PLP.Chemscore.Metal>
0.0000

> <Gold.Chemscore.Hbonds>
donor molecule, donor type, donor heavy atom, donor atom, acceptor molecule, acceptor atom, score
      L1  H     5    55       P1  7948  2.00
      L1  H     8    38       P1  7957  0.45
      L1  H    11    39       P1  7957  0.36

> <Gold.PLP.Chemscore.Internal.Correction>
0.3674

> <Gold.Rescore>
     Score         DG    S(hbond)    S(metal)    S(lipo)     H(rot)  DE(clash)    DE(int)     intcor
     18.86     -22.66       2.37        0.00     114.14       1.60       1.92       1.87       ----

> <Gold.Chemscore.Fitness>
18.8637

> <Gold.Chemscore.DG>
-22.6572

> <Gold.Chemscore.ZeroCoef>
-5.4800

> <Gold.Chemscore.Hbond>
2.3691

> <Gold.Chemscore.Metal>
0.0000

> <Gold.Chemscore.Lipo>
114.1395

> <Gold.Chemscore.Internal_Hbond>
0.0000

> <Gold.Chemscore.DEClash>
1.9233

> <Gold.Chemscore.DEInternal>
1.8702

> <Gold.Chemscore.Rot>
1.5976

> <Gold.Chemscore.Internal.Correction>
   9.000000E+99

> <Gold.Chemscore.Hbonds>
donor molecule, donor type, donor heavy atom, donor atom, acceptor molecule, acceptor atom, score
      L1  H     5    55       P1  7948  0.98
      L1  H     8    38       P1  7957  0.27
      L1  H    11    39       P1  7957  0.32

> <Gold.Chemscore.Hbond.Weighted>
-7.9128

> <Gold.Chemscore.Metal.Weighted>
-0.0000

> <Gold.Chemscore.Lipo.Weighted>
-13.3543

> <Gold.Chemscore.Internal_Hbond.Weighted>
0.0000

> <Gold.Chemscore.DEClash.Weighted>
1.9233

> <Gold.Chemscore.DEInternal.Weighted>
1.8702

> <Gold.Chemscore.Rot.Weighted>
4.0899

> <Gold.Chemscore.Internal.Correction.Weighted>
   9.000000E+99

> <Gold.Protein.RotatedTorsions>
[ 6907 6896 6895 6894 ] final   17.66 input  -60.11 | X-H torsion
[ 7974 7965 7964 7962 ] final   92.86 input  175.53 | X-H torsion
[ 8008 7997 7996 7995 ] final   42.84 input   59.86 | X-H torsion
[ 10167 10162 10161 10158 ] final -176.65 input  -65.29 | X-H torsion
[ 10718 10713 10712 10709 ] final   63.82 input   66.30 | X-H torsion
[ 10763 10752 10751 10750 ] final   51.03 input  -60.55 | X-H torsion
[ 11005 11000 10999 10996 ] final  -75.51 input  -57.11 | X-H torsion

> <Gold.Protein.ActiveResidues>
 VAL166  LYS551  ARG553  GLY616  TRP617  ASP618  TYR619  PRO620  LYS621  CYS622 
 ASP623  PHE694  ASN695  SER759  ASP760  ASP761  ALA762  ILE779  LEU786  VAL792 
 PHE793  MET794  SER795  GLU796  ALA797  LYS798  CYS799  TRP800  GLU811  SER814 

> <Gold.Protein.RotatedAtoms>
  151.8531  135.0551  160.0460 H   0  0  0  0  0  0  0  0  0  0  0  0  # atno 6907 bound_to 6896
  152.2721  133.5387  159.5454 H   0  0  0  0  0  0  0  0  0  0  0  0  # atno 6908 bound_to 6896
  150.7156  134.0599  159.3870 H   0  0  0  0  0  0  0  0  0  0  0  0  # atno 6909 bound_to 6896
  145.4866  139.2277  143.2853 H   0  0  0  0  0  0  0  0  0  0  0  0  # atno 7974 bound_to 7965
  155.2928  140.3380  155.4251 H   0  0  0  0  0  0  0  0  0  0  0  0  # atno 8008 bound_to 7997
  156.2038  140.1743  156.7884 H   0  0  0  0  0  0  0  0  0  0  0  0  # atno 8009 bound_to 7997
  154.5593  140.0690  156.8778 H   0  0  0  0  0  0  0  0  0  0  0  0  # atno 8010 bound_to 7997
  139.5519  144.2087  152.1092 H   0  0  0  0  0  0  0  0  0  0  0  0  # atno 10167 bound_to 10162
  157.5997  130.9126  149.9765 H   0  0  0  0  0  0  0  0  0  0  0  0  # atno 10718 bound_to 10713
  152.9785  135.5859  154.4349 H   0  0  0  0  0  0  0  0  0  0  0  0  # atno 10763 bound_to 10752
  154.3957  135.2768  155.2129 H   0  0  0  0  0  0  0  0  0  0  0  0  # atno 10764 bound_to 10752
  154.3982  135.6109  153.5936 H   0  0  0  0  0  0  0  0  0  0  0  0  # atno 10765 bound_to 10752
  141.1646  133.6949  156.7528 H   0  0  0  0  0  0  0  0  0  0  0  0  # atno 11005 bound_to 11000
  146.2309  140.5657  142.8976 LP  0  0  0  0  0  0  0  0  0  0  0  0  # atno 17320 bound_to 7965
  144.7858  140.5932  143.6575 LP  0  0  0  0  0  0  0  0  0  0  0  0  # atno 17321 bound_to 7965
  140.1584  144.5049  150.6646 LP  0  0  0  0  0  0  0  0  0  0  0  0  # atno 17342 bound_to 10162
  140.6784  143.2315  151.5449 LP  0  0  0  0  0  0  0  0  0  0  0  0  # atno 17343 bound_to 10162
  156.1068  130.3652  150.0120 LP  0  0  0  0  0  0  0  0  0  0  0  0  # atno 17370 bound_to 10713
  156.8226  130.9364  151.3640 LP  0  0  0  0  0  0  0  0  0  0  0  0  # atno 17371 bound_to 10713
  140.2591  134.8480  157.3741 LP  0  0  0  0  0  0  0  0  0  0  0  0  # atno 17394 bound_to 11000
  140.1628  134.4707  155.7883 LP  0  0  0  0  0  0  0  0  0  0  0  0  # atno 17395 bound_to 11000

$$$$
