AV-unprocessed.smi:3072|AV-procd|sdf|11717|dock1
  -GOLD-   2272017123D 1   1.00000     0.00000
 Structure written by MMmdl.
 25 26  0  0  0  0  0  0  0  0  2 V2000
  150.6950  141.9884  156.2408 C   0  0  0  0  0  0  0  0  0  0  0  0
  151.5019  141.8984  157.2859 N   0  0  0  0  0  0  0  0  0  0  0  0
  151.7178  140.5762  157.4089 N   0  0  0  0  0  0  0  0  0  0  0  0
  151.0582  139.8360  156.4566 C   0  0  0  0  0  0  0  0  0  0  0  0
  150.3765  140.7216  155.6672 C   0  0  0  0  0  0  0  0  0  0  0  0
  149.4973  140.4519  154.4729 C   0  0  2  0  0  0  0  0  0  0  0  0
  148.0768  141.0120  154.6811 C   0  0  0  0  0  0  0  0  0  0  0  0
  147.1864  140.6880  153.4712 C   0  0  0  0  0  0  0  0  0  0  0  0
  147.1842  139.1786  153.1780 C   0  0  0  0  0  0  0  0  0  0  0  0
  148.5641  138.6810  152.9896 N   0  3  0  0  0  0  0  0  0  0  0  0
  149.4362  138.9433  154.1555 C   0  0  0  0  0  0  0  0  0  0  0  0
  152.3087  140.2001  158.1371 H   0  0  0  0  0  0  0  0  0  0  0  0
  150.3655  142.9679  155.9268 H   0  0  0  0  0  0  0  0  0  0  0  0
  151.1288  138.7588  156.4202 H   0  0  0  0  0  0  0  0  0  0  0  0
  149.9205  140.9522  153.6001 H   0  0  0  0  0  0  0  0  0  0  0  0
  147.6327  140.5846  155.5813 H   0  0  0  0  0  0  0  0  0  0  0  0
  148.1154  142.0911  154.8350 H   0  0  0  0  0  0  0  0  0  0  0  0
  146.1689  141.0347  153.6534 H   0  0  0  0  0  0  0  0  0  0  0  0
  147.5458  141.2309  152.5959 H   0  0  0  0  0  0  0  0  0  0  0  0
  146.7138  138.6330  153.9974 H   0  0  0  0  0  0  0  0  0  0  0  0
  146.6033  138.9680  152.2797 H   0  0  0  0  0  0  0  0  0  0  0  0
  148.5338  137.6858  152.8199 H   0  0  0  0  0  0  0  0  0  0  0  0
  150.4339  138.5602  153.9391 H   0  0  0  0  0  0  0  0  0  0  0  0
  149.0590  138.3831  155.0124 H   0  0  0  0  0  0  0  0  0  0  0  0
  148.9625  139.1374  152.1814 H   0  0  0  0  0  0  0  0  0  0  0  0
  1  5  1  0  0  0  0
  1  2  2  0  0  0  0
  1 13  1  0  0  0  0
  2  3  1  0  0  0  0
  3 12  1  0  0  0  0
  3  4  1  0  0  0  0
  4  5  2  0  0  0  0
  4 14  1  0  0  0  0
  5  6  1  0  0  0  0
  6 11  1  0  0  0  0
  6  7  1  0  0  0  0
  6 15  1  0  0  0  0
  7  8  1  0  0  0  0
  7 16  1  0  0  0  0
  7 17  1  0  0  0  0
  8  9  1  0  0  0  0
  8 18  1  0  0  0  0
  8 19  1  0  0  0  0
  9 10  1  0  0  0  0
  9 20  1  0  0  0  0
  9 21  1  0  0  0  0
 10 11  1  0  0  0  0
 10 22  1  0  0  0  0
 10 25  1  0  0  0  0
 11 23  1  0  0  0  0
 11 24  1  0  0  0  0
M  CHG  1  10   1
M  END
> <s_m_source_file>
AV-unprocessed.smi

> <i_m_source_file_index>
3072

> <i_lp_mmshare_version>
43012

> <i_f3d_flags>
0

> <s_epik_input>
W2NIXTFbbkhdbltjSF1jMVtDQEBIXTJbQ0gyXVtDSDJdW0NIMl1bTkhdW0NIMl0y

> <s_epik_cmdline>
J2VwaWtfcHl0aG9uJywgJy1waCcsICc3LjAnLCAnLXRuJywgJzgnLCAnLW1hJywgJzIwMCcsICctbWV0YWxfYmluZGluZycsICctaW1hZScsICc8aW5maWxlLm1hZT4nLCAnLW9tYWUnLCAnPG91dGZpbGUubWFlPic=

> <r_lp_tautomer_probability>
1

> <r_epik_Ionization_Penalty>
0.000160186

> <r_epik_Ionization_Penalty_Charging>
0.000157527

> <r_epik_Ionization_Penalty_Neutral>
2.65916e-06

> <r_epik_State_Penalty>
-0

> <r_epik_Charging_Adjusted_Penalty>
0.000157527

> <i_epik_Tot_Q>
1

> <i_epik_Tot_abs_Q>
1

> <r_epik_Metal_State_Penalty>
-0

> <b_epik_Metal_Only>
0

> <s_lp_Force_Field>
OPLS_2005

> <r_lp_Energy>
12.3326

> <b_lp_Chiralities_Consistent>
1

> <s_lp_Variant>
AV-unprocessed.smi:3072-1

> <Gold.Version>
5.8.1

> <Gold.Id.Protein>
6NUR|6NUR_protein|mol2

> <Gold.PLP.Fitness>
33.1691

> <Gold.PLP.PLP>
-21.4402

> <Gold.PLP.part.hbond>
-1.8786

> <Gold.PLP.part.metal>
0.0000

> <Gold.PLP.part.buried>
-1.2018

> <Gold.PLP.part.nonpolar>
-18.3284

> <Gold.PLP.part.repulsive>
0.2061

> <Gold.PLP.ligand.clash>
0.0000

> <Gold.PLP.ligand.torsion>
0.0067

> <Gold.PLP.Chemscore.Hbond>
2.9100

> <Gold.PLP.Chemscore.CHOScore>
1.0000

> <Gold.PLP.Chemscore.Metal>
0.0000

> <Gold.Chemscore.Hbonds>
donor molecule, donor type, donor heavy atom, donor atom, acceptor molecule, acceptor atom, score
      L1  H    10    22       P1  7948  2.00
      L1  H    10    25       P1  7957  0.91
      L1  C     1    13       P1  8028  1.00

> <Gold.PLP.Chemscore.Internal.Correction>
0.0123

> <Gold.Rescore>
     Score         DG    S(hbond)    S(metal)    S(lipo)     H(rot)  DE(clash)    DE(int)     intcor
     15.51     -15.53       1.93        0.00      52.60       1.00       0.01       0.01       ----

> <Gold.Chemscore.Fitness>
15.5095

> <Gold.Chemscore.DG>
-15.5317

> <Gold.Chemscore.ZeroCoef>
-5.4800

> <Gold.Chemscore.Hbond>
1.9334

> <Gold.Chemscore.Metal>
0.0000

> <Gold.Chemscore.Lipo>
52.5986

> <Gold.Chemscore.Internal_Hbond>
0.0000

> <Gold.Chemscore.DEClash>
0.0086

> <Gold.Chemscore.DEInternal>
0.0136

> <Gold.Chemscore.Rot>
1.0000

> <Gold.Chemscore.Internal.Correction>
   9.000000E+99

> <Gold.Chemscore.Hbonds>
donor molecule, donor type, donor heavy atom, donor atom, acceptor molecule, acceptor atom, score
      L1  H    10    22       P1  7948  0.95
      L1  H    10    25       P1  7957  0.86

> <Gold.Chemscore.Hbond.Weighted>
-6.4577

> <Gold.Chemscore.Metal.Weighted>
-0.0000

> <Gold.Chemscore.Lipo.Weighted>
-6.1540

> <Gold.Chemscore.Internal_Hbond.Weighted>
0.0000

> <Gold.Chemscore.DEClash.Weighted>
0.0086

> <Gold.Chemscore.DEInternal.Weighted>
0.0136

> <Gold.Chemscore.Rot.Weighted>
2.5600

> <Gold.Chemscore.Internal.Correction.Weighted>
   9.000000E+99

> <Gold.Protein.RotatedTorsions>
[ 6907 6896 6895 6894 ] final  141.95 input  -60.11 | X-H torsion
[ 7974 7965 7964 7962 ] final -124.91 input  175.53 | X-H torsion
[ 8008 7997 7996 7995 ] final  -27.68 input   59.86 | X-H torsion
[ 10167 10162 10161 10158 ] final  110.69 input  -65.29 | X-H torsion
[ 10718 10713 10712 10709 ] final -115.10 input   66.30 | X-H torsion
[ 10763 10752 10751 10750 ] final  142.58 input  -60.55 | X-H torsion
[ 11005 11000 10999 10996 ] final -175.37 input  -57.11 | X-H torsion

> <Gold.Protein.ActiveResidues>
 VAL166  LYS551  ARG553  GLY616  TRP617  ASP618  TYR619  PRO620  LYS621  CYS622 
 ASP623  PHE694  ASN695  SER759  ASP760  ASP761  ALA762  ILE779  LEU786  VAL792 
 PHE793  MET794  SER795  GLU796  ALA797  LYS798  CYS799  TRP800  GLU811  SER814 

> <Gold.Protein.RotatedAtoms>
  152.2247  133.5010  159.5181 H   0  0  0  0  0  0  0  0  0  0  0  0  # atno 6907 bound_to 6896
  150.7021  134.1296  159.4074 H   0  0  0  0  0  0  0  0  0  0  0  0  # atno 6908 bound_to 6896
  151.9217  135.0295  160.0573 H   0  0  0  0  0  0  0  0  0  0  0  0  # atno 6909 bound_to 6896
  145.0031  140.7838  143.4484 H   0  0  0  0  0  0  0  0  0  0  0  0  # atno 7974 bound_to 7965
  154.4366  140.1866  156.0970 H   0  0  0  0  0  0  0  0  0  0  0  0  # atno 8008 bound_to 7997
  156.0321  140.3329  155.7125 H   0  0  0  0  0  0  0  0  0  0  0  0  # atno 8009 bound_to 7997
  155.5824  140.0623  157.2770 H   0  0  0  0  0  0  0  0  0  0  0  0  # atno 8010 bound_to 7997
  139.6669  144.7127  151.1760 H   0  0  0  0  0  0  0  0  0  0  0  0  # atno 10167 bound_to 10162
  156.0873  130.6062  150.8862 H   0  0  0  0  0  0  0  0  0  0  0  0  # atno 10718 bound_to 10713
  153.9582  135.2963  155.3435 H   0  0  0  0  0  0  0  0  0  0  0  0  # atno 10763 bound_to 10752
  154.7389  135.5034  153.9092 H   0  0  0  0  0  0  0  0  0  0  0  0  # atno 10764 bound_to 10752
  153.0960  135.6721  153.9873 H   0  0  0  0  0  0  0  0  0  0  0  0  # atno 10765 bound_to 10752
  140.4640  134.6227  157.4855 H   0  0  0  0  0  0  0  0  0  0  0  0  # atno 11005 bound_to 11000
  145.2126  139.2197  143.5135 LP  0  0  0  0  0  0  0  0  0  0  0  0  # atno 17320 bound_to 7965
  146.3456  140.1967  142.8589 LP  0  0  0  0  0  0  0  0  0  0  0  0  # atno 17321 bound_to 7965
  140.7603  143.5905  150.8801 LP  0  0  0  0  0  0  0  0  0  0  0  0  # atno 17342 bound_to 10162
  139.9568  143.6210  152.3014 LP  0  0  0  0  0  0  0  0  0  0  0  0  # atno 17343 bound_to 10162
  157.6012  131.0941  150.8957 LP  0  0  0  0  0  0  0  0  0  0  0  0  # atno 17370 bound_to 10713
  156.9114  130.5282  149.5280 LP  0  0  0  0  0  0  0  0  0  0  0  0  # atno 17371 bound_to 10713
  139.9927  134.6960  155.9662 LP  0  0  0  0  0  0  0  0  0  0  0  0  # atno 17394 bound_to 11000
  141.1608  133.6539  156.4312 LP  0  0  0  0  0  0  0  0  0  0  0  0  # atno 17395 bound_to 11000

$$$$
