AV-unprocessed.smi:3323|AV-procd|sdf|12779|dock1
  -GOLD-   2272019123D 1   1.00000     0.00000
 Structure written by MMmdl.
 37 38  0  0  0  0  0  0  0  0  1 V2000
  151.6293  138.4009  154.4860 C   0  0  0  0  0  0  0  0  0  0  0  0
  150.3085  139.1231  154.7734 C   0  0  2  0  0  0  0  0  0  0  0  0
  149.2435  138.8370  153.6981 C   0  0  0  0  0  0  0  0  0  0  0  0
  147.9525  139.6246  153.9759 C   0  0  2  0  0  0  0  0  0  0  0  0
  146.8997  139.3722  152.8777 C   0  0  0  0  0  0  0  0  0  0  0  0
  146.9373  137.9982  152.3846 N   0  0  0  0  0  0  0  0  0  0  0  0
  145.8903  137.1631  152.3175 C   0  0  0  0  0  0  0  0  0  0  0  0
  144.7525  137.4705  152.6713 O   0  0  0  0  0  0  0  0  0  0  0  0
  146.2567  135.9730  151.8112 N   0  0  0  0  0  0  0  0  0  0  0  0
  145.4659  134.8156  151.5724 C   0  0  0  0  0  0  0  0  0  0  0  0
  145.9244  133.6450  150.9193 C   0  0  0  0  0  0  0  0  0  0  0  0
  145.0289  132.5734  150.7372 C   0  0  0  0  0  0  0  0  0  0  0  0
  143.7087  132.7112  151.2070 C   0  0  0  0  0  0  0  0  0  0  0  0
  143.2549  133.8238  151.8211 N   0  0  0  0  0  0  0  0  0  0  0  0
  144.1190  134.8467  151.9926 C   0  0  0  0  0  0  0  0  0  0  0  0
  148.3114  141.1128  154.1440 C   0  0  0  0  0  0  0  0  0  0  0  0
  149.4283  141.2926  155.1845 C   0  0  0  0  0  0  0  0  0  0  0  0
  150.5682  140.5229  154.8181 O   0  0  0  0  0  0  0  0  0  0  0  0
  151.4866  137.3206  154.4531 H   0  0  0  0  0  0  0  0  0  0  0  0
  152.3662  138.6145  155.2607 H   0  0  0  0  0  0  0  0  0  0  0  0
  152.0506  138.7127  153.5297 H   0  0  0  0  0  0  0  0  0  0  0  0
  149.9421  138.7970  155.7485 H   0  0  0  0  0  0  0  0  0  0  0  0
  149.6348  139.1058  152.7154 H   0  0  0  0  0  0  0  0  0  0  0  0
  149.0283  137.7683  153.6659 H   0  0  0  0  0  0  0  0  0  0  0  0
  147.5426  139.2677  154.9221 H   0  0  0  0  0  0  0  0  0  0  0  0
  145.9038  139.6372  153.2373 H   0  0  0  0  0  0  0  0  0  0  0  0
  147.0954  140.0261  152.0274 H   0  0  0  0  0  0  0  0  0  0  0  0
  147.8337  137.6575  152.0689 H   0  0  0  0  0  0  0  0  0  0  0  0
  147.2205  135.8984  151.5201 H   0  0  0  0  0  0  0  0  0  0  0  0
  146.9307  133.5461  150.5450 H   0  0  0  0  0  0  0  0  0  0  0  0
  145.3463  131.6664  150.2443 H   0  0  0  0  0  0  0  0  0  0  0  0
  142.9970  131.9085  151.0824 H   0  0  0  0  0  0  0  0  0  0  0  0
  143.7194  135.7208  152.4861 H   0  0  0  0  0  0  0  0  0  0  0  0
  148.6359  141.5251  153.1877 H   0  0  0  0  0  0  0  0  0  0  0  0
  147.4375  141.6877  154.4510 H   0  0  0  0  0  0  0  0  0  0  0  0
  149.7183  142.3417  155.2440 H   0  0  0  0  0  0  0  0  0  0  0  0
  149.0845  141.0020  156.1783 H   0  0  0  0  0  0  0  0  0  0  0  0
  1  2  1  0  0  0  0
  1 19  1  0  0  0  0
  1 20  1  0  0  0  0
  1 21  1  0  0  0  0
  2 18  1  0  0  0  0
  2  3  1  0  0  0  0
  2 22  1  0  0  0  0
  3  4  1  0  0  0  0
  3 23  1  0  0  0  0
  3 24  1  0  0  0  0
  4  5  1  0  0  0  0
  4 16  1  0  0  0  0
  4 25  1  0  0  0  0
  5  6  1  0  0  0  0
  5 26  1  0  0  0  0
  5 27  1  0  0  0  0
  6  7  1  0  0  0  0
  6 28  1  0  0  0  0
  7  8  2  0  0  0  0
  7  9  1  0  0  0  0
  9 10  1  0  0  0  0
  9 29  1  0  0  0  0
 10 15  1  0  0  0  0
 10 11  2  0  0  0  0
 11 12  1  0  0  0  0
 11 30  1  0  0  0  0
 12 13  2  0  0  0  0
 12 31  1  0  0  0  0
 13 14  1  0  0  0  0
 13 32  1  0  0  0  0
 14 15  2  0  0  0  0
 15 33  1  0  0  0  0
 16 17  1  0  0  0  0
 16 34  1  0  0  0  0
 16 35  1  0  0  0  0
 17 18  1  0  0  0  0
 17 36  1  0  0  0  0
 17 37  1  0  0  0  0
M  END
> <s_m_source_file>
AV-unprocessed.smi

> <i_m_source_file_index>
3323

> <i_lp_mmshare_version>
43012

> <i_f3d_flags>
0

> <s_epik_input>
W0NIM11bQ0BASF0xW0NIMl1bQ0BIXShbQ0gyXVtDSDJdTzEpW0NIMl1bTkhdQyg9TylbTkhdYzJbY0hdW2NIXVtjSF1uW2NIXTI=

> <s_epik_cmdline>
J2VwaWtfcHl0aG9uJywgJy1waCcsICc3LjAnLCAnLXRuJywgJzgnLCAnLW1hJywgJzIwMCcsICctbWV0YWxfYmluZGluZycsICctaW1hZScsICc8aW5maWxlLm1hZT4nLCAnLW9tYWUnLCAnPG91dGZpbGUubWFlPic=

> <r_epik_Ionization_Penalty>
0.00485293

> <r_epik_Ionization_Penalty_Charging>
0

> <r_epik_Ionization_Penalty_Neutral>
0.00485293

> <r_epik_State_Penalty>
0.00349083

> <r_epik_Charging_Adjusted_Penalty>
0.00349083

> <i_epik_Tot_Q>
0

> <i_epik_Tot_abs_Q>
0

> <r_epik_Metal_State_Penalty>
-0

> <b_epik_Metal_Only>
0

> <s_lp_Force_Field>
OPLS_2005

> <r_lp_Energy>
12.0355

> <b_lp_Chiralities_Consistent>
1

> <s_lp_Variant>
AV-unprocessed.smi:3323-3

> <Gold.Version>
5.8.1

> <Gold.Id.Protein>
6NUR|6NUR_protein|mol2

> <Gold.PLP.Fitness>
41.8543

> <Gold.PLP.PLP>
-33.4096

> <Gold.PLP.part.hbond>
-3.0000

> <Gold.PLP.part.metal>
0.0000

> <Gold.PLP.part.buried>
-2.8385

> <Gold.PLP.part.nonpolar>
-28.7480

> <Gold.PLP.part.repulsive>
0.7090

> <Gold.PLP.ligand.clash>
0.0000

> <Gold.PLP.ligand.torsion>
0.2674

> <Gold.PLP.Chemscore.Hbond>
2.9920

> <Gold.PLP.Chemscore.CHOScore>
0.0000

> <Gold.PLP.Chemscore.Metal>
0.0000

> <Gold.Chemscore.Hbonds>
donor molecule, donor type, donor heavy atom, donor atom, acceptor molecule, acceptor atom, score
      L1  H     6    28       P1  7948  0.98
      L1  H     9    29       P1  7948  1.00
      P1  H  7989  7998       L1    18  1.00

> <Gold.PLP.Chemscore.Internal.Correction>
0.0035

> <Gold.Rescore>
     Score         DG    S(hbond)    S(metal)    S(lipo)     H(rot)  DE(clash)    DE(int)     intcor
     18.54     -20.32       2.63        0.00      78.65       1.23       0.11       1.68       ----

> <Gold.Chemscore.Fitness>
18.5386

> <Gold.Chemscore.DG>
-20.3239

> <Gold.Chemscore.ZeroCoef>
-5.4800

> <Gold.Chemscore.Hbond>
2.6297

> <Gold.Chemscore.Metal>
0.0000

> <Gold.Chemscore.Lipo>
78.6529

> <Gold.Chemscore.Internal_Hbond>
0.0000

> <Gold.Chemscore.DEClash>
0.1102

> <Gold.Chemscore.DEInternal>
1.6751

> <Gold.Chemscore.Rot>
1.2273

> <Gold.Chemscore.Internal.Correction>
   9.000000E+99

> <Gold.Chemscore.Hbonds>
donor molecule, donor type, donor heavy atom, donor atom, acceptor molecule, acceptor atom, score
      L1  H     6    28       P1  7948  0.93
      L1  H     9    29       P1  7948  0.94
      P1  H  7989  7998       L1    18  0.57

> <Gold.Chemscore.Hbond.Weighted>
-8.7834

> <Gold.Chemscore.Metal.Weighted>
-0.0000

> <Gold.Chemscore.Lipo.Weighted>
-9.2024

> <Gold.Chemscore.Internal_Hbond.Weighted>
0.0000

> <Gold.Chemscore.DEClash.Weighted>
0.1102

> <Gold.Chemscore.DEInternal.Weighted>
1.6751

> <Gold.Chemscore.Rot.Weighted>
3.1418

> <Gold.Chemscore.Internal.Correction.Weighted>
   9.000000E+99

> <Gold.Protein.RotatedTorsions>
[ 6907 6896 6895 6894 ] final  -13.08 input  -60.11 | X-H torsion
[ 7974 7965 7964 7962 ] final  -22.92 input  175.53 | X-H torsion
[ 8008 7997 7996 7995 ] final   85.42 input   59.86 | X-H torsion
[ 10167 10162 10161 10158 ] final  -21.97 input  -65.29 | X-H torsion
[ 10718 10713 10712 10709 ] final  -32.76 input   66.30 | X-H torsion
[ 10763 10752 10751 10750 ] final -143.20 input  -60.55 | X-H torsion
[ 11005 11000 10999 10996 ] final   -9.78 input  -57.11 | X-H torsion

> <Gold.Protein.ActiveResidues>
 VAL166  LYS551  ARG553  GLY616  TRP617  ASP618  TYR619  PRO620  LYS621  CYS622 
 ASP623  PHE694  ASN695  SER759  ASP760  ASP761  ALA762  ILE779  LEU786  VAL792 
 PHE793  MET794  SER795  GLU796  ALA797  LYS798  CYS799  TRP800  GLU811  SER814 

> <Gold.Protein.RotatedAtoms>
  151.3605  135.0903  159.9432 H   0  0  0  0  0  0  0  0  0  0  0  0  # atno 6907 bound_to 6896
  152.5163  133.9263  159.7569 H   0  0  0  0  0  0  0  0  0  0  0  0  # atno 6908 bound_to 6896
  150.9656  133.6344  159.2776 H   0  0  0  0  0  0  0  0  0  0  0  0  # atno 6909 bound_to 6896
  146.1647  140.4545  142.8557 H   0  0  0  0  0  0  0  0  0  0  0  0  # atno 7974 bound_to 7965
  155.9497  140.3402  155.6398 H   0  0  0  0  0  0  0  0  0  0  0  0  # atno 8008 bound_to 7997
  155.6935  140.0751  157.2457 H   0  0  0  0  0  0  0  0  0  0  0  0  # atno 8009 bound_to 7997
  154.4119  140.1653  156.2100 H   0  0  0  0  0  0  0  0  0  0  0  0  # atno 8010 bound_to 7997
  140.7284  143.4578  151.0423 H   0  0  0  0  0  0  0  0  0  0  0  0  # atno 10167 bound_to 10162
  156.3709  130.4339  149.7546 H   0  0  0  0  0  0  0  0  0  0  0  0  # atno 10718 bound_to 10713
  154.8479  135.3474  154.6149 H   0  0  0  0  0  0  0  0  0  0  0  0  # atno 10763 bound_to 10752
  153.6758  135.6982  153.5138 H   0  0  0  0  0  0  0  0  0  0  0  0  # atno 10764 bound_to 10752
  153.2707  135.4294  155.0941 H   0  0  0  0  0  0  0  0  0  0  0  0  # atno 10765 bound_to 10752
  140.7377  133.8696  155.8943 H   0  0  0  0  0  0  0  0  0  0  0  0  # atno 11005 bound_to 11000
  144.8076  140.6327  143.6437 LP  0  0  0  0  0  0  0  0  0  0  0  0  # atno 17320 bound_to 7965
  145.4498  139.1525  143.3925 LP  0  0  0  0  0  0  0  0  0  0  0  0  # atno 17321 bound_to 7965
  139.8260  143.7755  152.3178 LP  0  0  0  0  0  0  0  0  0  0  0  0  # atno 17342 bound_to 10162
  139.7854  144.7429  151.0029 LP  0  0  0  0  0  0  0  0  0  0  0  0  # atno 17343 bound_to 10162
  156.4674  130.7980  151.2999 LP  0  0  0  0  0  0  0  0  0  0  0  0  # atno 17370 bound_to 10713
  157.7484  131.0047  150.3084 LP  0  0  0  0  0  0  0  0  0  0  0  0  # atno 17371 bound_to 10713
  140.9864  134.1337  157.4448 LP  0  0  0  0  0  0  0  0  0  0  0  0  # atno 17394 bound_to 11000
  139.8812  135.0027  156.6141 LP  0  0  0  0  0  0  0  0  0  0  0  0  # atno 17395 bound_to 11000

$$$$
