AV-unprocessed.smi:3290|AV-procd|sdf|12617|dock1
  -GOLD-   2272018553D 1   1.00000     0.00000
 Structure written by MMmdl.
 43 44  0  0  0  0  0  0  0  0  2 V2000
  148.2226  137.9193  155.7486 C   0  0  0  0  0  0  0  0  0  0  0  0
  148.7007  138.4352  154.3759 C   0  0  2  0  0  0  0  0  0  0  0  0
  149.9433  139.3412  154.5098 C   0  0  0  0  0  0  0  0  0  0  0  0
  149.6017  140.7197  155.1004 C   0  0  0  0  0  0  0  0  0  0  0  0
  148.5019  141.4165  154.2861 C   0  0  0  0  0  0  0  0  0  0  0  0
  147.2534  140.5303  154.1517 C   0  0  0  0  0  0  0  0  0  0  0  0
  147.6003  139.1503  153.5467 C   0  0  2  0  0  0  0  0  0  0  0  0
  146.3511  138.2718  153.3338 C   0  0  0  0  0  0  0  0  0  0  0  0
  146.5271  137.3456  152.1981 N   0  3  0  0  0  0  0  0  0  0  0  0
  145.7827  136.0772  152.3320 C   0  0  0  0  0  0  0  0  0  0  0  0
  145.0136  135.7354  151.0431 C   0  0  1  0  0  0  0  0  0  0  0  0
  145.6395  136.3998  149.9655 O   0  0  0  0  0  0  0  0  0  0  0  0
  144.9221  134.2339  150.8134 C   0  0  0  0  0  0  0  0  0  0  0  0
  143.6744  133.5739  150.8062 C   0  0  0  0  0  0  0  0  0  0  0  0
  143.6481  132.1847  150.5715 C   0  0  0  0  0  0  0  0  0  0  0  0
  144.7586  131.4500  150.3492 N   0  0  0  0  0  0  0  0  0  0  0  0
  145.9495  132.0860  150.3577 C   0  0  0  0  0  0  0  0  0  0  0  0
  146.0858  133.4706  150.5820 C   0  0  0  0  0  0  0  0  0  0  0  0
  147.8324  138.7192  156.3769 H   0  0  0  0  0  0  0  0  0  0  0  0
  149.0416  137.4479  156.2926 H   0  0  0  0  0  0  0  0  0  0  0  0
  147.4397  137.1686  155.6442 H   0  0  0  0  0  0  0  0  0  0  0  0
  149.0136  137.5549  153.8127 H   0  0  0  0  0  0  0  0  0  0  0  0
  150.7043  138.8532  155.1200 H   0  0  0  0  0  0  0  0  0  0  0  0
  150.3929  139.4798  153.5257 H   0  0  0  0  0  0  0  0  0  0  0  0
  149.2800  140.6124  156.1366 H   0  0  0  0  0  0  0  0  0  0  0  0
  150.4958  141.3435  155.1226 H   0  0  0  0  0  0  0  0  0  0  0  0
  148.2367  142.3647  154.7548 H   0  0  0  0  0  0  0  0  0  0  0  0
  148.8836  141.6602  153.2938 H   0  0  0  0  0  0  0  0  0  0  0  0
  146.7827  140.4081  155.1275 H   0  0  0  0  0  0  0  0  0  0  0  0
  146.5227  141.0449  153.5273 H   0  0  0  0  0  0  0  0  0  0  0  0
  148.0301  139.3312  152.5597 H   0  0  0  0  0  0  0  0  0  0  0  0
  146.1528  137.6835  154.2310 H   0  0  0  0  0  0  0  0  0  0  0  0
  145.4724  138.8928  153.1547 H   0  0  0  0  0  0  0  0  0  0  0  0
  146.2101  137.8115  151.3597 H   0  0  0  0  0  0  0  0  0  0  0  0
  146.4912  135.2822  152.5691 H   0  0  0  0  0  0  0  0  0  0  0  0
  145.0917  136.1504  153.1734 H   0  0  0  0  0  0  0  0  0  0  0  0
  144.0032  136.1410  151.1155 H   0  0  0  0  0  0  0  0  0  0  0  0
  145.5965  135.8427  149.2029 H   0  0  0  0  0  0  0  0  0  0  0  0
  142.7554  134.1159  150.9754 H   0  0  0  0  0  0  0  0  0  0  0  0
  142.7094  131.6506  150.5587 H   0  0  0  0  0  0  0  0  0  0  0  0
  146.8204  131.4735  150.1767 H   0  0  0  0  0  0  0  0  0  0  0  0
  147.0636  133.9297  150.5757 H   0  0  0  0  0  0  0  0  0  0  0  0
  147.5101  137.1356  152.0988 H   0  0  0  0  0  0  0  0  0  0  0  0
  1  2  1  0  0  0  0
  1 19  1  0  0  0  0
  1 20  1  0  0  0  0
  1 21  1  0  0  0  0
  2  7  1  0  0  0  0
  2  3  1  0  0  0  0
  2 22  1  0  0  0  0
  3  4  1  0  0  0  0
  3 23  1  0  0  0  0
  3 24  1  0  0  0  0
  4  5  1  0  0  0  0
  4 25  1  0  0  0  0
  4 26  1  0  0  0  0
  5  6  1  0  0  0  0
  5 27  1  0  0  0  0
  5 28  1  0  0  0  0
  6  7  1  0  0  0  0
  6 29  1  0  0  0  0
  6 30  1  0  0  0  0
  7  8  1  0  0  0  0
  7 31  1  0  0  0  0
  8  9  1  0  0  0  0
  8 32  1  0  0  0  0
  8 33  1  0  0  0  0
  9 10  1  0  0  0  0
  9 34  1  0  0  0  0
  9 43  1  0  0  0  0
 10 11  1  0  0  0  0
 10 35  1  0  0  0  0
 10 36  1  0  0  0  0
 11 12  1  0  0  0  0
 11 13  1  0  0  0  0
 11 37  1  0  0  0  0
 12 38  1  0  0  0  0
 13 18  1  0  0  0  0
 13 14  2  0  0  0  0
 14 15  1  0  0  0  0
 14 39  1  0  0  0  0
 15 16  2  0  0  0  0
 15 40  1  0  0  0  0
 16 17  1  0  0  0  0
 17 18  2  0  0  0  0
 17 41  1  0  0  0  0
 18 42  1  0  0  0  0
M  CHG  1   9   1
M  END
> <s_m_source_file>
AV-unprocessed.smi

> <i_m_source_file_index>
3290

> <i_lp_mmshare_version>
43012

> <i_f3d_flags>
0

> <s_epik_input>
W0NIM11bQ0BASF0xW0NIMl1bQ0gyXVtDSDJdW0NIMl1bQ0BIXTFbQ0gyXVtOSF1bQ0gyXVtDQEhdKFtPSF0pYzJbY0hdW2NIXW5bY0hdW2NIXTI=

> <s_epik_cmdline>
J2VwaWtfcHl0aG9uJywgJy1waCcsICc3LjAnLCAnLXRuJywgJzgnLCAnLW1hJywgJzIwMCcsICctbWV0YWxfYmluZGluZycsICctaW1hZScsICc8aW5maWxlLm1hZT4nLCAnLW9tYWUnLCAnPG91dGZpbGUubWFlPic=

> <r_lp_tautomer_probability>
1

> <r_epik_Ionization_Penalty>
0.00420552

> <r_epik_Ionization_Penalty_Charging>
0.00207255

> <r_epik_Ionization_Penalty_Neutral>
0.00213297

> <r_epik_State_Penalty>
-0

> <r_epik_Charging_Adjusted_Penalty>
0.00207255

> <i_epik_Tot_Q>
1

> <i_epik_Tot_abs_Q>
1

> <r_epik_Metal_State_Penalty>
-0

> <b_epik_Metal_Only>
0

> <s_lp_Force_Field>
OPLS_2005

> <r_lp_Energy>
19.3175

> <b_lp_Chiralities_Consistent>
1

> <s_lp_Variant>
AV-unprocessed.smi:3290-7

> <Gold.Version>
5.8.1

> <Gold.Id.Protein>
6NUR|6NUR_protein|mol2

> <Gold.PLP.Fitness>
47.8367

> <Gold.PLP.PLP>
-35.3154

> <Gold.PLP.part.hbond>
-3.2083

> <Gold.PLP.part.metal>
0.0000

> <Gold.PLP.part.buried>
-2.3869

> <Gold.PLP.part.nonpolar>
-30.2428

> <Gold.PLP.part.repulsive>
0.1737

> <Gold.PLP.ligand.clash>
0.0000

> <Gold.PLP.ligand.torsion>
1.3110

> <Gold.PLP.Chemscore.Hbond>
3.0000

> <Gold.PLP.Chemscore.CHOScore>
2.0000

> <Gold.PLP.Chemscore.Metal>
0.0000

> <Gold.Chemscore.Hbonds>
donor molecule, donor type, donor heavy atom, donor atom, acceptor molecule, acceptor atom, score
      L1  H     9    43       P1  7948  2.00
      L1  H    12    38       P1  7921  1.00
      L1  C    15    40       P1 10952  1.00
      L1  C    17    41       P1 10747  1.00

> <Gold.PLP.Chemscore.Internal.Correction>
0.1432

> <Gold.Rescore>
     Score         DG    S(hbond)    S(metal)    S(lipo)     H(rot)  DE(clash)    DE(int)     intcor
     16.21     -18.13       1.99        0.00      96.07       2.05       0.83       1.08       ----

> <Gold.Chemscore.Fitness>
16.2135

> <Gold.Chemscore.DG>
-18.1311

> <Gold.Chemscore.ZeroCoef>
-5.4800

> <Gold.Chemscore.Hbond>
1.9937

> <Gold.Chemscore.Metal>
0.0000

> <Gold.Chemscore.Lipo>
96.0660

> <Gold.Chemscore.Internal_Hbond>
0.0000

> <Gold.Chemscore.DEClash>
0.8338

> <Gold.Chemscore.DEInternal>
1.0837

> <Gold.Chemscore.Rot>
2.0498

> <Gold.Chemscore.Internal.Correction>
   9.000000E+99

> <Gold.Chemscore.Hbonds>
donor molecule, donor type, donor heavy atom, donor atom, acceptor molecule, acceptor atom, score
      L1  H     9    43       P1  7948  1.00
      L1  H    12    38       P1  7921  0.99

> <Gold.Chemscore.Hbond.Weighted>
-6.6589

> <Gold.Chemscore.Metal.Weighted>
-0.0000

> <Gold.Chemscore.Lipo.Weighted>
-11.2397

> <Gold.Chemscore.Internal_Hbond.Weighted>
0.0000

> <Gold.Chemscore.DEClash.Weighted>
0.8338

> <Gold.Chemscore.DEInternal.Weighted>
1.0837

> <Gold.Chemscore.Rot.Weighted>
5.2475

> <Gold.Chemscore.Internal.Correction.Weighted>
   9.000000E+99

> <Gold.Protein.RotatedTorsions>
[ 6907 6896 6895 6894 ] final  -16.97 input  -60.11 | X-H torsion
[ 7974 7965 7964 7962 ] final -155.70 input  175.53 | X-H torsion
[ 8008 7997 7996 7995 ] final  -43.05 input   59.86 | X-H torsion
[ 10167 10162 10161 10158 ] final   20.96 input  -65.29 | X-H torsion
[ 10718 10713 10712 10709 ] final  152.28 input   66.30 | X-H torsion
[ 10763 10752 10751 10750 ] final  157.87 input  -60.55 | X-H torsion
[ 11005 11000 10999 10996 ] final   62.04 input  -57.11 | X-H torsion

> <Gold.Protein.ActiveResidues>
 VAL166  LYS551  ARG553  GLY616  TRP617  ASP618  TYR619  PRO620  LYS621  CYS622 
 ASP623  PHE694  ASN695  SER759  ASP760  ASP761  ALA762  ILE779  LEU786  VAL792 
 PHE793  MET794  SER795  GLU796  ALA797  LYS798  CYS799  TRP800  GLU811  SER814 

> <Gold.Protein.RotatedAtoms>
  151.3004  135.0767  159.9236 H   0  0  0  0  0  0  0  0  0  0  0  0  # atno 6907 bound_to 6896
  152.5299  133.9839  159.7830 H   0  0  0  0  0  0  0  0  0  0  0  0  # atno 6908 bound_to 6896
  151.0125  133.5900  159.2711 H   0  0  0  0  0  0  0  0  0  0  0  0  # atno 6909 bound_to 6896
  144.7628  140.4213  143.5964 H   0  0  0  0  0  0  0  0  0  0  0  0  # atno 7974 bound_to 7965
  154.3997  140.1458  156.3455 H   0  0  0  0  0  0  0  0  0  0  0  0  # atno 8008 bound_to 7997
  155.8317  140.3465  155.5555 H   0  0  0  0  0  0  0  0  0  0  0  0  # atno 8009 bound_to 7997
  155.8181  140.0894  157.1855 H   0  0  0  0  0  0  0  0  0  0  0  0  # atno 8010 bound_to 7997
  140.5464  143.9587  150.6550 H   0  0  0  0  0  0  0  0  0  0  0  0  # atno 10167 bound_to 10162
  157.2598  131.0796  151.1673 H   0  0  0  0  0  0  0  0  0  0  0  0  # atno 10718 bound_to 10713
  154.2071  135.2787  155.2971 H   0  0  0  0  0  0  0  0  0  0  0  0  # atno 10763 bound_to 10752
  154.5808  135.5590  153.7187 H   0  0  0  0  0  0  0  0  0  0  0  0  # atno 10764 bound_to 10752
  153.0073  135.6344  154.2210 H   0  0  0  0  0  0  0  0  0  0  0  0  # atno 10765 bound_to 10752
  140.0120  134.6282  155.9767 H   0  0  0  0  0  0  0  0  0  0  0  0  # atno 11005 bound_to 11000
  145.6566  139.1574  143.2832 LP  0  0  0  0  0  0  0  0  0  0  0  0  # atno 17320 bound_to 7965
  146.1707  140.6650  142.9235 LP  0  0  0  0  0  0  0  0  0  0  0  0  # atno 17321 bound_to 7965
  140.3002  143.3266  152.0979 LP  0  0  0  0  0  0  0  0  0  0  0  0  # atno 17342 bound_to 10162
  139.5009  144.6702  151.6262 LP  0  0  0  0  0  0  0  0  0  0  0  0  # atno 17343 bound_to 10162
  157.3187  130.6926  149.6257 LP  0  0  0  0  0  0  0  0  0  0  0  0  # atno 17370 bound_to 10713
  155.9664  130.4342  150.5037 LP  0  0  0  0  0  0  0  0  0  0  0  0  # atno 17371 bound_to 10713
  141.1717  133.6538  156.4676 LP  0  0  0  0  0  0  0  0  0  0  0  0  # atno 17394 bound_to 11000
  140.4538  134.6904  157.5053 LP  0  0  0  0  0  0  0  0  0  0  0  0  # atno 17395 bound_to 11000

$$$$
