AV-unprocessed.smi:2346|AV-procd|sdf|9368|dock3
  -GOLD-   2272012593D 1   1.00000     0.00000
 Structure written by MMmdl.
 45 47  0  0  0  0  0  0  0  0  2 V2000
  155.4579  138.2989  160.7576 C   0  0  0  0  0  0  0  0  0  0  0  0
  154.7085  138.9789  159.7613 O   0  0  0  0  0  0  0  0  0  0  0  0
  154.0291  140.1252  160.1198 C   0  0  0  0  0  0  0  0  0  0  0  0
  154.2300  140.8049  161.3482 C   0  0  0  0  0  0  0  0  0  0  0  0
  153.4979  141.9695  161.6504 C   0  0  0  0  0  0  0  0  0  0  0  0
  153.7120  142.6578  162.9125 C   0  0  0  0  0  0  0  0  0  0  0  0
  153.8822  143.2054  163.9173 N   0  0  0  0  0  0  0  0  0  0  0  0
  152.5588  142.4649  160.7274 C   0  0  0  0  0  0  0  0  0  0  0  0
  152.3539  141.7989  159.5057 C   0  0  0  0  0  0  0  0  0  0  0  0
  153.0862  140.6258  159.1926 C   0  0  0  0  0  0  0  0  0  0  0  0
  152.9358  139.9219  158.0155 O   0  0  0  0  0  0  0  0  0  0  0  0
  151.6687  139.9343  157.3748 C   0  0  0  0  0  0  0  0  0  0  0  0
  151.8905  140.1216  155.8695 C   0  0  0  0  0  0  0  0  0  0  0  0
  150.7825  139.5670  155.0787 N   0  0  0  0  0  0  0  0  0  0  0  0
  150.6075  138.3233  154.5417 C   0  0  0  0  0  0  0  0  0  0  0  0
  151.5311  137.1481  154.6429 C   0  0  1  0  0  0  0  0  0  0  0  0
  150.7545  135.8740  155.0002 C   0  0  0  0  0  0  0  0  0  0  0  0
  152.2344  136.9229  153.4389 O   0  0  0  0  0  0  0  0  0  0  0  0
  149.4001  138.3274  153.9075 N   0  3  0  0  0  0  0  0  0  0  0  0
  148.7973  139.5778  154.0399 C   0  0  0  0  0  0  0  0  0  0  0  0
  147.5777  140.0551  153.5700 C   0  0  0  0  0  0  0  0  0  0  0  0
  147.2545  141.3895  153.8917 C   0  0  0  0  0  0  0  0  0  0  0  0
  148.1281  142.1931  154.6527 C   0  0  0  0  0  0  0  0  0  0  0  0
  149.3628  141.6980  155.1226 C   0  0  0  0  0  0  0  0  0  0  0  0
  149.6766  140.3783  154.7971 C   0  0  0  0  0  0  0  0  0  0  0  0
  155.9094  137.4081  160.3215 H   0  0  0  0  0  0  0  0  0  0  0  0
  154.8223  137.9740  161.5827 H   0  0  0  0  0  0  0  0  0  0  0  0
  156.2652  138.9216  161.1452 H   0  0  0  0  0  0  0  0  0  0  0  0
  154.9447  140.4462  162.0739 H   0  0  0  0  0  0  0  0  0  0  0  0
  151.9906  143.3569  160.9497 H   0  0  0  0  0  0  0  0  0  0  0  0
  151.6258  142.2109  158.8240 H   0  0  0  0  0  0  0  0  0  0  0  0
  151.1478  138.9932  157.5554 H   0  0  0  0  0  0  0  0  0  0  0  0
  151.0550  140.7477  157.7651 H   0  0  0  0  0  0  0  0  0  0  0  0
  152.0161  141.1754  155.6203 H   0  0  0  0  0  0  0  0  0  0  0  0
  152.8106  139.6274  155.5589 H   0  0  0  0  0  0  0  0  0  0  0  0
  152.2734  137.3381  155.4171 H   0  0  0  0  0  0  0  0  0  0  0  0
  150.2253  135.9886  155.9464 H   0  0  0  0  0  0  0  0  0  0  0  0
  151.4254  135.0203  155.1014 H   0  0  0  0  0  0  0  0  0  0  0  0
  150.0169  135.6287  154.2352 H   0  0  0  0  0  0  0  0  0  0  0  0
  151.6066  136.7876  152.7453 H   0  0  0  0  0  0  0  0  0  0  0  0
  146.9062  139.4399  152.9888 H   0  0  0  0  0  0  0  0  0  0  0  0
  146.3174  141.8041  153.5496 H   0  0  0  0  0  0  0  0  0  0  0  0
  147.8456  143.2107  154.8811 H   0  0  0  0  0  0  0  0  0  0  0  0
  150.0219  142.3226  155.7071 H   0  0  0  0  0  0  0  0  0  0  0  0
  149.0197  137.5247  153.4224 H   0  0  0  0  0  0  0  0  0  0  0  0
  1  2  1  0  0  0  0
  1 26  1  0  0  0  0
  1 27  1  0  0  0  0
  1 28  1  0  0  0  0
  2  3  1  0  0  0  0
  3 10  1  0  0  0  0
  3  4  2  0  0  0  0
  4  5  1  0  0  0  0
  4 29  1  0  0  0  0
  5  6  1  0  0  0  0
  5  8  2  0  0  0  0
  6  7  3  0  0  0  0
  8  9  1  0  0  0  0
  8 30  1  0  0  0  0
  9 10  2  0  0  0  0
  9 31  1  0  0  0  0
 10 11  1  0  0  0  0
 11 12  1  0  0  0  0
 12 13  1  0  0  0  0
 12 32  1  0  0  0  0
 12 33  1  0  0  0  0
 13 14  1  0  0  0  0
 13 34  1  0  0  0  0
 13 35  1  0  0  0  0
 14 25  1  0  0  0  0
 14 15  1  0  0  0  0
 15 16  1  0  0  0  0
 15 19  2  0  0  0  0
 16 17  1  0  0  0  0
 16 18  1  0  0  0  0
 16 36  1  0  0  0  0
 17 37  1  0  0  0  0
 17 38  1  0  0  0  0
 17 39  1  0  0  0  0
 18 40  1  0  0  0  0
 19 20  1  0  0  0  0
 19 45  1  0  0  0  0
 20 25  2  0  0  0  0
 20 21  1  0  0  0  0
 21 22  2  0  0  0  0
 21 41  1  0  0  0  0
 22 23  1  0  0  0  0
 22 42  1  0  0  0  0
 23 24  2  0  0  0  0
 23 43  1  0  0  0  0
 24 25  1  0  0  0  0
 24 44  1  0  0  0  0
M  CHG  1  19   1
M  END
> <s_m_source_file>
AV-unprocessed.smi

> <i_m_source_file_index>
2346

> <i_lp_mmshare_version>
43012

> <i_f3d_flags>
0

> <s_epik_input>
W0NIM11PYzFbY0hdYyhDI04pW2NIXVtjSF1jMU9bQ0gyXVtDSDJdbihjKG4yKVtDQEhdKFtDSDNdKVtPSF0pYyhjMjMpW2NIXVtjSF1bY0hdW2NIXTM=

> <s_epik_cmdline>
J2VwaWtfcHl0aG9uJywgJy1waCcsICc3LjAnLCAnLXRuJywgJzgnLCAnLW1hJywgJzIwMCcsICctbWV0YWxfYmluZGluZycsICctaW1hZScsICc8aW5maWxlLm1hZT4nLCAnLW9tYWUnLCAnPG91dGZpbGUubWFlPic=

> <r_epik_Ionization_Penalty>
1.58928

> <r_epik_Ionization_Penalty_Charging>
1.58925

> <r_epik_Ionization_Penalty_Neutral>
2.92192e-05

> <r_epik_State_Penalty>
1.68649

> <r_epik_Charging_Adjusted_Penalty>
3.27574

> <i_epik_Tot_Q>
1

> <i_epik_Tot_abs_Q>
1

> <r_epik_Metal_State_Penalty>
5.74385

> <b_epik_Metal_Only>
0

> <s_lp_Force_Field>
OPLS_2005

> <r_lp_Energy>
24.4742

> <b_lp_Chiralities_Consistent>
1

> <s_lp_Variant>
AV-unprocessed.smi:2346-4

> <Gold.Version>
5.8.1

> <Gold.Id.Protein>
6NUR|6NUR_protein|mol2

> <Gold.PLP.Fitness>
63.0953

> <Gold.PLP.PLP>
-52.1446

> <Gold.PLP.part.hbond>
-4.0633

> <Gold.PLP.part.metal>
0.0000

> <Gold.PLP.part.buried>
1.9318

> <Gold.PLP.part.nonpolar>
-49.3393

> <Gold.PLP.part.repulsive>
0.1404

> <Gold.PLP.ligand.clash>
0.0000

> <Gold.PLP.ligand.torsion>
1.7209

> <Gold.PLP.Chemscore.Hbond>
4.7680

> <Gold.PLP.Chemscore.CHOScore>
0.0000

> <Gold.PLP.Chemscore.Metal>
0.0000

> <Gold.Chemscore.Hbonds>
donor molecule, donor type, donor heavy atom, donor atom, acceptor molecule, acceptor atom, score
      L1  H    18    40       P1  7949  0.96
      L1  H    19    45       P1  7948  2.00
      P1  H  7997  8009       L1    11  1.00
      P1  H 10752 10763       L1    18  0.82

> <Gold.PLP.Chemscore.Internal.Correction>
0.0885

> <Gold.Rescore>
     Score         DG    S(hbond)    S(metal)    S(lipo)     H(rot)  DE(clash)    DE(int)     intcor
     19.96     -23.82       3.13        0.00     125.28       2.65       2.36       1.50       ----

> <Gold.Chemscore.Fitness>
19.9561

> <Gold.Chemscore.DG>
-23.8165

> <Gold.Chemscore.ZeroCoef>
-5.4800

> <Gold.Chemscore.Hbond>
3.1301

> <Gold.Chemscore.Metal>
0.0000

> <Gold.Chemscore.Lipo>
125.2781

> <Gold.Chemscore.Internal_Hbond>
0.0000

> <Gold.Chemscore.DEClash>
2.3567

> <Gold.Chemscore.DEInternal>
1.5037

> <Gold.Chemscore.Rot>
2.6467

> <Gold.Chemscore.Internal.Correction>
   9.000000E+99

> <Gold.Chemscore.Hbonds>
donor molecule, donor type, donor heavy atom, donor atom, acceptor molecule, acceptor atom, score
      L1  H    18    40       P1  7949  0.86
      L1  H    19    45       P1  7948  0.91
      P1  H  7997  8009       L1    11  0.72
      P1  H 10752 10763       L1    18  0.60

> <Gold.Chemscore.Hbond.Weighted>
-10.4546

> <Gold.Chemscore.Metal.Weighted>
-0.0000

> <Gold.Chemscore.Lipo.Weighted>
-14.6575

> <Gold.Chemscore.Internal_Hbond.Weighted>
0.0000

> <Gold.Chemscore.DEClash.Weighted>
2.3567

> <Gold.Chemscore.DEInternal.Weighted>
1.5037

> <Gold.Chemscore.Rot.Weighted>
6.7756

> <Gold.Chemscore.Internal.Correction.Weighted>
   9.000000E+99

> <Gold.Protein.RotatedTorsions>
[ 6907 6896 6895 6894 ] final   23.79 input  -60.11 | X-H torsion
[ 7974 7965 7964 7962 ] final    5.00 input  175.53 | X-H torsion
[ 8008 7997 7996 7995 ] final  159.39 input   59.86 | X-H torsion
[ 10167 10162 10161 10158 ] final  -79.41 input  -65.29 | X-H torsion
[ 10718 10713 10712 10709 ] final   52.01 input   66.30 | X-H torsion
[ 10763 10752 10751 10750 ] final   -7.78 input  -60.55 | X-H torsion
[ 11005 11000 10999 10996 ] final  139.68 input  -57.11 | X-H torsion

> <Gold.Protein.ActiveResidues>
 VAL166  LYS551  ARG553  GLY616  TRP617  ASP618  TYR619  PRO620  LYS621  CYS622 
 ASP623  PHE694  ASN695  SER759  ASP760  ASP761  ALA762  ILE779  LEU786  VAL792 
 PHE793  MET794  SER795  GLU796  ALA797  LYS798  CYS799  TRP800  GLU811  SER814 

> <Gold.Protein.RotatedAtoms>
  151.9477  135.0184  160.0539 H   0  0  0  0  0  0  0  0  0  0  0  0  # atno 6907 bound_to 6896
  152.1981  133.4816  159.5052 H   0  0  0  0  0  0  0  0  0  0  0  0  # atno 6908 bound_to 6896
  150.6949  134.1543  159.4195 H   0  0  0  0  0  0  0  0  0  0  0  0  # atno 6909 bound_to 6896
  146.2442  140.0449  142.8379 H   0  0  0  0  0  0  0  0  0  0  0  0  # atno 7974 bound_to 7965
  156.2242  140.1832  156.7404 H   0  0  0  0  0  0  0  0  0  0  0  0  # atno 8008 bound_to 7997
  154.5913  140.0650  156.9271 H   0  0  0  0  0  0  0  0  0  0  0  0  # atno 8009 bound_to 7997
  155.2331  140.3316  155.4303 H   0  0  0  0  0  0  0  0  0  0  0  0  # atno 8010 bound_to 7997
  140.4595  143.2458  151.8369 H   0  0  0  0  0  0  0  0  0  0  0  0  # atno 10167 bound_to 10162
  157.5035  130.8453  149.8346 H   0  0  0  0  0  0  0  0  0  0  0  0  # atno 10718 bound_to 10713
  153.4312  135.7012  153.6229 H   0  0  0  0  0  0  0  0  0  0  0  0  # atno 10763 bound_to 10752
  153.4643  135.3729  155.2356 H   0  0  0  0  0  0  0  0  0  0  0  0  # atno 10764 bound_to 10752
  154.8725  135.4027  154.3696 H   0  0  0  0  0  0  0  0  0  0  0  0  # atno 10765 bound_to 10752
  140.0272  134.9369  157.0591 H   0  0  0  0  0  0  0  0  0  0  0  0  # atno 11005 bound_to 11000
  145.1036  140.9361  143.4698 LP  0  0  0  0  0  0  0  0  0  0  0  0  # atno 17320 bound_to 7965
  145.0647  139.3077  143.5862 LP  0  0  0  0  0  0  0  0  0  0  0  0  # atno 17321 bound_to 7965
  139.4805  144.5024  151.9042 LP  0  0  0  0  0  0  0  0  0  0  0  0  # atno 17342 bound_to 10162
  140.4110  144.2369  150.5889 LP  0  0  0  0  0  0  0  0  0  0  0  0  # atno 17343 bound_to 10162
  156.0244  130.3784  150.1867 LP  0  0  0  0  0  0  0  0  0  0  0  0  # atno 17370 bound_to 10713
  157.0057  130.9936  151.3379 LP  0  0  0  0  0  0  0  0  0  0  0  0  # atno 17371 bound_to 10713
  140.4287  134.1804  155.7167 LP  0  0  0  0  0  0  0  0  0  0  0  0  # atno 17394 bound_to 11000
  141.1810  133.8415  157.1259 LP  0  0  0  0  0  0  0  0  0  0  0  0  # atno 17395 bound_to 11000

$$$$
