AV-unprocessed.smi:20|AV-procd|sdf|114|dock6
  -GOLD-   2262015283D 1   1.00000     0.00000
 Structure written by MMmdl.
 57 61  0  0  0  0  0  0  0  0  1 V2000
  149.1344  144.9387  159.6334 O   0  0  0  0  0  0  0  0  0  0  0  0
  150.3417  144.7117  159.6516 C   0  0  0  0  0  0  0  0  0  0  0  0
  150.9529  143.4336  160.2002 C   0  0  0  0  0  0  0  0  0  0  0  0
  152.3969  143.4657  159.6462 C   0  0  1  0  0  0  0  0  0  0  0  0
  153.4422  142.8896  160.6290 C   0  0  0  0  0  0  0  0  0  0  0  0
  153.2941  141.3665  160.7822 C   0  0  0  0  0  0  0  0  0  0  0  0
  153.3446  140.6652  159.4161 C   0  0  0  0  0  0  0  0  0  0  0  0
  152.3649  141.2528  158.5038 N   0  0  0  0  0  0  0  0  0  0  0  0
  151.9968  140.5436  157.4077 C   0  0  0  0  0  0  0  0  0  0  0  0
  152.6566  139.3983  157.0877 N   0  0  0  0  0  0  0  0  0  0  0  0
  152.3084  138.6998  156.0028 C   0  0  0  0  0  0  0  0  0  0  0  0
  151.3470  138.9606  155.1151 N   0  0  0  0  0  0  0  0  0  0  0  0
  150.6760  140.1032  155.4363 C   0  0  0  0  0  0  0  0  0  0  0  0
  150.9307  140.9461  156.5543 C   0  0  0  0  0  0  0  0  0  0  0  0
  150.0331  142.0081  156.5593 N   0  0  0  0  0  0  0  0  0  0  0  0
  149.2987  141.8111  155.4986 C   0  0  0  0  0  0  0  0  0  0  0  0
  149.6225  140.6938  154.7627 N   0  0  0  0  0  0  0  0  0  0  0  0
  148.9835  140.2368  153.5419 C   0  0  0  0  0  0  0  0  0  0  0  0
  147.6035  139.5781  153.7898 C   0  0  2  0  0  0  0  0  0  0  0  0
  146.8433  139.2749  152.4756 C   0  0  0  0  0  0  0  0  0  0  0  0
  147.5032  138.2850  151.7129 O   0  0  0  0  0  0  0  0  0  0  0  0
  146.7491  140.3969  154.7900 C   0  0  2  0  0  0  0  0  0  0  0  0
  145.3804  139.8088  155.0865 C   0  0  0  0  0  0  0  0  0  0  0  0
  144.6352  141.0043  155.6691 C   0  0  0  0  0  0  0  0  0  0  0  0
  145.1620  142.1452  155.0021 O   0  0  0  0  0  0  0  0  0  0  0  0
  146.3501  141.7933  154.2996 C   0  0  0  0  0  0  0  0  0  0  0  0
  152.4870  142.6968  158.3037 C   0  0  0  0  0  0  0  0  0  0  0  0
  152.6274  144.9730  159.3899 C   0  0  0  0  0  0  0  0  0  0  0  0
  151.2980  145.5242  159.2072 N   0  0  0  0  0  0  0  0  0  0  0  0
  150.9359  143.4811  161.2897 H   0  0  0  0  0  0  0  0  0  0  0  0
  150.3887  142.5540  159.8886 H   0  0  0  0  0  0  0  0  0  0  0  0
  154.4455  143.1137  160.2638 H   0  0  0  0  0  0  0  0  0  0  0  0
  153.3578  143.3712  161.6038 H   0  0  0  0  0  0  0  0  0  0  0  0
  154.0803  140.9773  161.4294 H   0  0  0  0  0  0  0  0  0  0  0  0
  152.3482  141.1372  161.2744 H   0  0  0  0  0  0  0  0  0  0  0  0
  154.3409  140.7606  158.9827 H   0  0  0  0  0  0  0  0  0  0  0  0
  153.1490  139.6002  159.5484 H   0  0  0  0  0  0  0  0  0  0  0  0
  152.8838  137.8045  155.8191 H   0  0  0  0  0  0  0  0  0  0  0  0
  148.5006  142.4830  155.2180 H   0  0  0  0  0  0  0  0  0  0  0  0
  148.8871  141.0976  152.8801 H   0  0  0  0  0  0  0  0  0  0  0  0
  149.6533  139.5364  153.0414 H   0  0  0  0  0  0  0  0  0  0  0  0
  147.7966  138.6110  154.2565 H   0  0  0  0  0  0  0  0  0  0  0  0
  145.8268  138.9382  152.6803 H   0  0  0  0  0  0  0  0  0  0  0  0
  146.7415  140.1739  151.8682 H   0  0  0  0  0  0  0  0  0  0  0  0
  147.5323  137.4867  152.2179 H   0  0  0  0  0  0  0  0  0  0  0  0
  147.2882  140.5012  155.7332 H   0  0  0  0  0  0  0  0  0  0  0  0
  144.8974  139.4806  154.1650 H   0  0  0  0  0  0  0  0  0  0  0  0
  145.4125  138.9641  155.7752 H   0  0  0  0  0  0  0  0  0  0  0  0
  143.5558  140.9276  155.5389 H   0  0  0  0  0  0  0  0  0  0  0  0
  144.8428  141.0990  156.7356 H   0  0  0  0  0  0  0  0  0  0  0  0
  147.1343  142.5322  154.4655 H   0  0  0  0  0  0  0  0  0  0  0  0
  146.1217  141.7790  153.2331 H   0  0  0  0  0  0  0  0  0  0  0  0
  151.7372  143.0718  157.6079 H   0  0  0  0  0  0  0  0  0  0  0  0
  153.4534  142.8862  157.8343 H   0  0  0  0  0  0  0  0  0  0  0  0
  153.0853  145.4607  160.2518 H   0  0  0  0  0  0  0  0  0  0  0  0
  153.2598  145.1656  158.5228 H   0  0  0  0  0  0  0  0  0  0  0  0
  151.1312  146.4323  158.7983 H   0  0  0  0  0  0  0  0  0  0  0  0
  1  2  2  0  0  0  0
  2 29  1  0  0  0  0
  2  3  1  0  0  0  0
  3  4  1  0  0  0  0
  3 30  1  0  0  0  0
  3 31  1  0  0  0  0
  4 27  1  0  0  0  0
  4  5  1  0  0  0  0
  4 28  1  0  0  0  0
  5  6  1  0  0  0  0
  5 32  1  0  0  0  0
  5 33  1  0  0  0  0
  6  7  1  0  0  0  0
  6 34  1  0  0  0  0
  6 35  1  0  0  0  0
  7  8  1  0  0  0  0
  7 36  1  0  0  0  0
  7 37  1  0  0  0  0
  8  9  1  0  0  0  0
  8 27  1  0  0  0  0
  9 14  1  0  0  0  0
  9 10  2  0  0  0  0
 10 11  1  0  0  0  0
 11 12  2  0  0  0  0
 11 38  1  0  0  0  0
 12 13  1  0  0  0  0
 13 17  1  0  0  0  0
 13 14  2  0  0  0  0
 14 15  1  0  0  0  0
 15 16  2  0  0  0  0
 16 17  1  0  0  0  0
 16 39  1  0  0  0  0
 17 18  1  0  0  0  0
 18 19  1  0  0  0  0
 18 40  1  0  0  0  0
 18 41  1  0  0  0  0
 19 20  1  0  0  0  0
 19 22  1  0  0  0  0
 19 42  1  0  0  0  0
 20 21  1  0  0  0  0
 20 43  1  0  0  0  0
 20 44  1  0  0  0  0
 21 45  1  0  0  0  0
 22 26  1  0  0  0  0
 22 23  1  0  0  0  0
 22 46  1  0  0  0  0
 23 24  1  0  0  0  0
 23 47  1  0  0  0  0
 23 48  1  0  0  0  0
 24 25  1  0  0  0  0
 24 49  1  0  0  0  0
 24 50  1  0  0  0  0
 25 26  1  0  0  0  0
 26 51  1  0  0  0  0
 26 52  1  0  0  0  0
 27 53  1  0  0  0  0
 27 54  1  0  0  0  0
 28 29  1  0  0  0  0
 28 55  1  0  0  0  0
 28 56  1  0  0  0  0
 29 57  1  0  0  0  0
M  END
> <s_m_source_file>
AV-unprocessed.smi

> <i_m_source_file_index>
20

> <i_lp_mmshare_version>
43012

> <i_f3d_flags>
0

> <s_epik_input>
W0NIMl0xW05IXUMoPU8pW0NIMl1bQ0BAXTEyW0NIMl1bQ0gyXVtDSDJdTihbQ0gyXTIpYyhuW2NIXW4zKWMoYzM0KW5bY0hdbjRbQ0gyXVtDQEhdKFtDSDJdW09IXSlbQ0BASF01W0NIMl1bQ0gyXU9bQ0gyXTU=

> <s_epik_cmdline>
J2VwaWtfcHl0aG9uJywgJy1waCcsICc3LjAnLCAnLXRuJywgJzgnLCAnLW1hJywgJzIwMCcsICctbWV0YWxfYmluZGluZycsICctaW1hZScsICc8aW5maWxlLm1hZT4nLCAnLW9tYWUnLCAnPG91dGZpbGUubWFlPic=

> <r_lp_tautomer_probability>
1

> <r_epik_Ionization_Penalty>
0.0019697

> <r_epik_Ionization_Penalty_Charging>
0

> <r_epik_Ionization_Penalty_Neutral>
0.0019697

> <r_epik_State_Penalty>
0.00113613

> <r_epik_Charging_Adjusted_Penalty>
0.00113613

> <i_epik_Tot_Q>
0

> <i_epik_Tot_abs_Q>
0

> <r_epik_Metal_State_Penalty>
-0

> <b_epik_Metal_Only>
0

> <s_lp_Force_Field>
OPLS_2005

> <r_lp_Energy>
58.2949

> <b_lp_Chiralities_Consistent>
1

> <s_lp_Variant>
AV-unprocessed.smi:20-2

> <Gold.Version>
5.8.1

> <Gold.Id.Protein>
6NUR|6NUR_protein|mol2

> <Gold.PLP.Fitness>
51.6251

> <Gold.PLP.PLP>
-42.7306

> <Gold.PLP.part.hbond>
-4.2583

> <Gold.PLP.part.metal>
0.0000

> <Gold.PLP.part.buried>
2.5977

> <Gold.PLP.part.nonpolar>
-41.4097

> <Gold.PLP.part.repulsive>
1.5796

> <Gold.PLP.ligand.clash>
0.0000

> <Gold.PLP.ligand.torsion>
0.5899

> <Gold.PLP.Chemscore.Hbond>
2.5440

> <Gold.PLP.Chemscore.CHOScore>
0.6247

> <Gold.PLP.Chemscore.Metal>
0.0000

> <Gold.Chemscore.Hbonds>
donor molecule, donor type, donor heavy atom, donor atom, acceptor molecule, acceptor atom, score
      L1  H    21    45       P1  7948  0.34
      P1  H  7954  7966       L1    21  1.00
      P1  H  7997  8010       L1    10  1.00
      L1  C    16    39       P1  8028  0.73

> <Gold.PLP.Chemscore.Internal.Correction>
0.5682

> <Gold.Rescore>
     Score         DG    S(hbond)    S(metal)    S(lipo)     H(rot)  DE(clash)    DE(int)     intcor
     10.93     -15.97       1.31        0.00     112.25       2.74       3.50       1.54       ----

> <Gold.Chemscore.Fitness>
10.9306

> <Gold.Chemscore.DG>
-15.9679

> <Gold.Chemscore.ZeroCoef>
-5.4800

> <Gold.Chemscore.Hbond>
1.3092

> <Gold.Chemscore.Metal>
0.0000

> <Gold.Chemscore.Lipo>
112.2519

> <Gold.Chemscore.Internal_Hbond>
0.0000

> <Gold.Chemscore.DEClash>
3.4954

> <Gold.Chemscore.DEInternal>
1.5420

> <Gold.Chemscore.Rot>
2.7415

> <Gold.Chemscore.Internal.Correction>
   9.000000E+99

> <Gold.Chemscore.Hbonds>
donor molecule, donor type, donor heavy atom, donor atom, acceptor molecule, acceptor atom, score
      L1  H    21    45       P1  7948  0.34
      P1  H  7954  7966       L1    21  0.63
      P1  H  7997  8010       L1    10  0.25

> <Gold.Chemscore.Hbond.Weighted>
-4.3726

> <Gold.Chemscore.Metal.Weighted>
-0.0000

> <Gold.Chemscore.Lipo.Weighted>
-13.1335

> <Gold.Chemscore.Internal_Hbond.Weighted>
0.0000

> <Gold.Chemscore.DEClash.Weighted>
3.4954

> <Gold.Chemscore.DEInternal.Weighted>
1.5420

> <Gold.Chemscore.Rot.Weighted>
7.0182

> <Gold.Chemscore.Internal.Correction.Weighted>
   9.000000E+99

> <Gold.Protein.RotatedTorsions>
[ 6907 6896 6895 6894 ] final   49.52 input  -60.11 | X-H torsion
[ 7974 7965 7964 7962 ] final -144.37 input  175.53 | X-H torsion
[ 8008 7997 7996 7995 ] final   42.59 input   59.86 | X-H torsion
[ 10167 10162 10161 10158 ] final    7.59 input  -65.29 | X-H torsion
[ 10718 10713 10712 10709 ] final    7.84 input   66.30 | X-H torsion
[ 10763 10752 10751 10750 ] final  141.80 input  -60.55 | X-H torsion
[ 11005 11000 10999 10996 ] final  129.80 input  -57.11 | X-H torsion

> <Gold.Protein.ActiveResidues>
 VAL166  LYS551  ARG553  GLY616  TRP617  ASP618  TYR619  PRO620  LYS621  CYS622 
 ASP623  PHE694  ASN695  SER759  ASP760  ASP761  ALA762  ILE779  LEU786  VAL792 
 PHE793  MET794  SER795  GLU796  ALA797  LYS798  CYS799  TRP800  GLU811  SER814 

> <Gold.Protein.RotatedAtoms>
  152.2917  134.7714  160.0376 H   0  0  0  0  0  0  0  0  0  0  0  0  # atno 6907 bound_to 6896
  151.8258  133.3396  159.3606 H   0  0  0  0  0  0  0  0  0  0  0  0  # atno 6908 bound_to 6896
  150.7233  134.5459  159.5815 H   0  0  0  0  0  0  0  0  0  0  0  0  # atno 6909 bound_to 6896
  144.8303  140.5719  143.5520 H   0  0  0  0  0  0  0  0  0  0  0  0  # atno 7974 bound_to 7965
  155.2886  140.3377  155.4254 H   0  0  0  0  0  0  0  0  0  0  0  0  # atno 8008 bound_to 7997
  156.2056  140.1750  156.7846 H   0  0  0  0  0  0  0  0  0  0  0  0  # atno 8009 bound_to 7997
  154.5617  140.0686  156.8813 H   0  0  0  0  0  0  0  0  0  0  0  0  # atno 8010 bound_to 7997
  140.6363  143.7879  150.7364 H   0  0  0  0  0  0  0  0  0  0  0  0  # atno 10167 bound_to 10162
  156.9428  130.5867  149.5653 H   0  0  0  0  0  0  0  0  0  0  0  0  # atno 10718 bound_to 10713
  153.9453  135.2975  155.3441 H   0  0  0  0  0  0  0  0  0  0  0  0  # atno 10763 bound_to 10752
  154.7455  135.5005  153.9200 H   0  0  0  0  0  0  0  0  0  0  0  0  # atno 10764 bound_to 10752
  153.1021  135.6737  153.9760 H   0  0  0  0  0  0  0  0  0  0  0  0  # atno 10765 bound_to 10752
  139.9636  134.9596  156.9201 H   0  0  0  0  0  0  0  0  0  0  0  0  # atno 11005 bound_to 11000
  145.4911  139.1488  143.3709 LP  0  0  0  0  0  0  0  0  0  0  0  0  # atno 17320 bound_to 7965
  146.2606  140.5049  142.8855 LP  0  0  0  0  0  0  0  0  0  0  0  0  # atno 17321 bound_to 7965
  140.1501  143.4365  152.2137 LP  0  0  0  0  0  0  0  0  0  0  0  0  # atno 17342 bound_to 10162
  139.5573  144.7382  151.4256 LP  0  0  0  0  0  0  0  0  0  0  0  0  # atno 17343 bound_to 10162
  156.0397  130.5481  150.8740 LP  0  0  0  0  0  0  0  0  0  0  0  0  # atno 17370 bound_to 10713
  157.5774  131.0946  150.9325 LP  0  0  0  0  0  0  0  0  0  0  0  0  # atno 17371 bound_to 10713
  140.5446  134.0686  155.7351 LP  0  0  0  0  0  0  0  0  0  0  0  0  # atno 17394 bound_to 11000
  141.1314  133.9295  157.2527 LP  0  0  0  0  0  0  0  0  0  0  0  0  # atno 17395 bound_to 11000

$$$$
