#       Name:                AV-unprocessed.smi:256
#       Creating user name   scv26
#       Creation time:       Thu Mar 26 21:10:49 2020


#       File generated by GOLD software.
#

@<TRIPOS>MOLECULE
AV-unprocessed.smi:256
    72    75     1
SMALL
NO_CHARGES


@<TRIPOS>ATOM
      1 ****        -3.8848  -2.4922   3.2288 C.3            1 S1                 0.0000
      2 ****        -4.0869  -2.5814   1.7065 C.3            1 S1                 0.0000
      3 ****        -3.3118  -1.5292   0.8785 C.3            1 S1                 0.0000
      4 ****        -1.7919  -1.7634   1.0654 C.3            1 S1                 0.0000
      5 ****        -1.0107  -0.8626   0.2211 N.3            1 S1                 0.0000
      6 ****         0.3169  -1.1094   0.0777 C.ar           1 S1                 0.0000
      7 ****         0.9592  -1.9141   0.9672 N.ar           1 S1                 0.0000
      8 ****         2.2662  -2.1589   0.8370 C.ar           1 S1                 0.0000
      9 ****         3.1101  -1.7109  -0.0937 N.ar           1 S1                 0.0000
     10 ****         2.4733  -0.9075  -0.9927 C.ar           1 S1                 0.0000
     11 ****         1.0920  -0.5610  -0.9838 C.ar           1 S1                 0.0000
     12 ****         0.8048   0.2576  -2.0702 N.2            1 S1                 0.0000
     13 ****         1.9507   0.3952  -2.6787 C.2            1 S1                 0.0000
     14 ****         3.0090  -0.2626  -2.0939 N.pl3          1 S1                 0.0000
     15 ****         4.3880  -0.2792  -2.5585 C.3            1 S1                 0.0000
     16 ****         5.2705   0.8435  -1.9578 C.3            1 S1                 0.0000
     17 ****         5.3568   0.6257  -0.5604 O.3            1 S1                 0.0000
     18 ****         6.6939   0.7794  -2.5477 C.3            1 S1                 0.0000
     19 ****         7.5577   1.9765  -2.1131 C.3            1 S1                 0.0000
     20 ****         6.9092   3.1944  -2.4585 O.3            1 S1                 0.0000
     21 ****         5.6673   3.3656  -1.7869 C.3            1 S1                 0.0000
     22 ****         4.6855   2.2533  -2.1955 C.3            1 S1                 0.0000
     23 ****        -1.3586   0.5369   0.4339 C.3            1 S1                 0.0000
     24 ****        -2.8670   0.7277   0.2281 C.3            1 S1                 0.0000
     25 ****        -3.6844  -0.1126   1.1111 N.3            1 S1                 0.0000
     26 ****        -5.1045   0.1739   0.8563 C.3            1 S1                 0.0000
     27 ****        -6.0274   0.1150   2.0849 C.3            1 S1                 0.0000
     28 ****        -7.3172   0.5561   1.6947 O.3            1 S1                 0.0000
     29 ****        -8.2418   0.5560   2.7686 C.3            1 S1                 0.0000
     30 ****        -4.5409  -3.1934   3.7443 H              1 S1                 0.0000
     31 ****        -4.1031  -1.4947   3.6093 H              1 S1                 0.0000
     32 ****        -2.8624  -2.7392   3.5135 H              1 S1                 0.0000
     33 ****        -3.7762  -3.5758   1.3836 H              1 S1                 0.0000
     34 ****        -5.1475  -2.5420   1.4648 H              1 S1                 0.0000
     35 ****        -3.5295  -1.7555  -0.1669 H              1 S1                 0.0000
     36 ****        -1.5051  -1.6018   2.1051 H              1 S1                 0.0000
     37 ****        -1.5479  -2.7977   0.8180 H              1 S1                 0.0000
     38 ****         2.6972  -2.8070   1.5857 H              1 S1                 0.0000
     39 ****         2.0579   0.9895  -3.5747 H              1 S1                 0.0000
     40 ****         4.8144  -1.2583  -2.3347 H              1 S1                 0.0000
     41 ****         4.3731  -0.1986  -3.6461 H              1 S1                 0.0000
     42 ****         5.9158   1.2892  -0.1860 H              1 S1                 0.0000
     43 ****         7.1828  -0.1554  -2.2700 H              1 S1                 0.0000
     44 ****         6.6329   0.7783  -3.6369 H              1 S1                 0.0000
     45 ****         7.7604   1.9489  -1.0414 H              1 S1                 0.0000
     46 ****         8.5237   1.9400  -2.6166 H              1 S1                 0.0000
     47 ****         5.8234   3.3756  -0.7071 H              1 S1                 0.0000
     48 ****         5.2564   4.3394  -2.0535 H              1 S1                 0.0000
     49 ****         4.4504   2.3703  -3.2542 H              1 S1                 0.0000
     50 ****         3.7461   2.3820  -1.6565 H              1 S1                 0.0000
     51 ****        -1.0762   0.8281   1.4465 H              1 S1                 0.0000
     52 ****        -0.8168   1.1928  -0.2461 H              1 S1                 0.0000
     53 ****        -3.1022   1.7784   0.4017 H              1 S1                 0.0000
     54 ****        -3.1172   0.5246  -0.8146 H              1 S1                 0.0000
     55 ****        -5.2039   1.1884   0.4669 H              1 S1                 0.0000
     56 ****        -5.4847  -0.4714   0.0633 H              1 S1                 0.0000
     57 ****        -6.1038  -0.8873   2.4992 H              1 S1                 0.0000
     58 ****        -5.6377   0.7648   2.8701 H              1 S1                 0.0000
     59 ****        -9.2111   0.9110   2.4183 H              1 S1                 0.0000
     60 ****        -7.9133   1.2156   3.5729 H              1 S1                 0.0000
     61 ****        -8.3770  -0.4482   3.1722 H              1 S1                 0.0000
     62 ****        -1.3152  -1.1037  -0.7004 LP             1 S1                 0.0000
     63 ****         0.4497  -2.3250   1.7233 LP             1 S1                 0.0000
     64 ****         4.0840  -1.9353  -0.1277 LP             1 S1                 0.0000
     65 ****        -0.0781   0.6509  -2.3266 LP             1 S1                 0.0000
     66 ****         5.7433  -0.2795  -0.3837 LP             1 S1                 0.0000
     67 ****         4.4452   0.6841  -0.1533 LP             1 S1                 0.0000
     68 ****         6.7428   3.1996  -3.4445 LP             1 S1                 0.0000
     69 ****         7.5105   3.9563  -2.2178 LP             1 S1                 0.0000
     70 ****        -3.5212   0.0823   2.0783 LP             1 S1                 0.0000
     71 ****        -7.6597  -0.0507   0.9773 LP             1 S1                 0.0000
     72 ****        -7.2426   1.4867   1.3366 LP             1 S1                 0.0000
@<TRIPOS>BOND
    1    1    2 1     
    2    1   30 1     
    3    1   31 1     
    4    1   32 1     
    5    2    3 1     
    6    2   33 1     
    7    2   34 1     
    8    3   25 1     
    9    3    4 1     
   10    3   35 1     
   11    4    5 1     
   12    4   36 1     
   13    4   37 1     
   14    5    6 1     
   15    5   23 1     
   16    6   11 ar    
   17    6    7 ar    
   18    7    8 ar    
   19    8    9 ar    
   20    8   38 1     
   21    9   10 ar    
   22   10   14 1     
   23   10   11 ar    
   24   11   12 1     
   25   12   13 2     
   26   13   14 1     
   27   13   39 1     
   28   14   15 1     
   29   15   16 1     
   30   15   40 1     
   31   15   41 1     
   32   16   22 1     
   33   16   17 1     
   34   16   18 1     
   35   17   42 1     
   36   18   19 1     
   37   18   43 1     
   38   18   44 1     
   39   19   20 1     
   40   19   45 1     
   41   19   46 1     
   42   20   21 1     
   43   21   22 1     
   44   21   47 1     
   45   21   48 1     
   46   22   49 1     
   47   22   50 1     
   48   23   24 1     
   49   23   51 1     
   50   23   52 1     
   51   24   25 1     
   52   24   53 1     
   53   24   54 1     
   54   25   26 1     
   55   26   27 1     
   56   26   55 1     
   57   26   56 1     
   58   27   28 1     
   59   27   57 1     
   60   27   58 1     
   61   28   29 1     
   62   29   59 1     
   63   29   60 1     
   64   29   61 1     
   65    5   62 1     
   66    7   63 1     
   67    9   64 1     
   68   12   65 1     
   69   17   66 1     
   70   17   67 1     
   71   20   68 1     
   72   20   69 1     
   73   25   70 1     
   74   28   71 1     
   75   28   72 1     
@<TRIPOS>SUBSTRUCTURE
      1 S1             1
@<TRIPOS>SET
LONE_PAIRS      STATIC     ATOMS    <user>   **** ""
11 62 63 64 65 66 67 68 69 70 71 72
DONOR_HYDROGENS      STATIC     ATOMS    <user>   **** ""
1 42
ATOM$BLUE        STATIC     ATOMS    COLORGROUP SYSTEM
11 62 63 64 65 66 67 68 69 70 71 72
ATOM$RED        STATIC     ATOMS    COLORGROUP SYSTEM
1 42
