AV-unprocessed.smi:1542|AV-procd|sdf|6203|dock8
  -GOLD-   22720 6373D 1   1.00000     0.00000
 Structure written by MMmdl.
 45 47  0  0  0  0  0  0  0  0  1 V2000
  145.2784  141.8788  154.3366 O   0  0  0  0  0  0  0  0  0  0  0  0
  146.5753  142.3508  154.0416 C   0  0  0  0  0  0  0  0  0  0  0  0
  147.6176  141.2977  154.4391 C   0  0  0  0  0  0  0  0  0  0  0  0
  149.0153  141.9030  154.6326 C   0  0  0  0  0  0  0  0  0  0  0  0
  149.9675  140.9502  155.2931 C   0  0  0  0  0  0  0  0  0  0  0  0
  150.5950  140.0064  154.5907 N   0  0  0  0  0  0  0  0  0  0  0  0
  151.4142  139.4184  155.5325 C   0  0  0  0  0  0  0  0  0  0  0  0
  152.3372  138.3555  155.4076 C   0  0  0  0  0  0  0  0  0  0  0  0
  153.0890  137.9281  156.5214 C   0  0  0  0  0  0  0  0  0  0  0  0
  152.9319  138.5596  157.7717 C   0  0  0  0  0  0  0  0  0  0  0  0
  152.0171  139.6201  157.9172 C   0  0  0  0  0  0  0  0  0  0  0  0
  151.2602  140.0375  156.8050 C   0  0  0  0  0  0  0  0  0  0  0  0
  150.2887  141.0182  156.6121 N   0  0  0  0  0  0  0  0  0  0  0  0
  149.7756  141.9373  157.6261 C   0  0  0  0  0  0  0  0  0  0  0  0
  150.7314  143.1060  157.9952 C   0  0  0  0  0  0  0  0  0  0  0  0
  151.1606  143.7260  156.7969 O   0  0  0  0  0  0  0  0  0  0  0  0
  150.0450  144.1887  158.8649 C   0  0  0  0  0  0  0  0  0  0  0  0
  151.0166  145.2770  159.3562 C   0  0  0  0  0  0  0  0  0  0  0  0
  152.2148  144.6659  160.0946 C   0  0  0  0  0  0  0  0  0  0  0  0
  152.9408  143.6452  159.2081 C   0  0  0  0  0  0  0  0  0  0  0  0
  151.9801  142.5467  158.7175 C   0  0  0  0  0  0  0  0  0  0  0  0
  144.9723  141.3628  153.6063 H   0  0  0  0  0  0  0  0  0  0  0  0
  146.6385  142.5734  152.9761 H   0  0  0  0  0  0  0  0  0  0  0  0
  146.7451  143.2826  154.5819 H   0  0  0  0  0  0  0  0  0  0  0  0
  147.3037  140.8070  155.3616 H   0  0  0  0  0  0  0  0  0  0  0  0
  147.6622  140.5209  153.6746 H   0  0  0  0  0  0  0  0  0  0  0  0
  149.4099  142.2358  153.6751 H   0  0  0  0  0  0  0  0  0  0  0  0
  148.9437  142.7986  155.2513 H   0  0  0  0  0  0  0  0  0  0  0  0
  152.4696  137.8708  154.4517 H   0  0  0  0  0  0  0  0  0  0  0  0
  153.7922  137.1153  156.4146 H   0  0  0  0  0  0  0  0  0  0  0  0
  153.5144  138.2298  158.6194 H   0  0  0  0  0  0  0  0  0  0  0  0
  151.9007  140.1057  158.8740 H   0  0  0  0  0  0  0  0  0  0  0  0
  148.8317  142.3423  157.2594 H   0  0  0  0  0  0  0  0  0  0  0  0
  149.5137  141.3656  158.5167 H   0  0  0  0  0  0  0  0  0  0  0  0
  150.4980  144.3436  156.5271 H   0  0  0  0  0  0  0  0  0  0  0  0
  149.2292  144.6622  158.3178 H   0  0  0  0  0  0  0  0  0  0  0  0
  149.5958  143.7130  159.7368 H   0  0  0  0  0  0  0  0  0  0  0  0
  151.3697  145.8685  158.5106 H   0  0  0  0  0  0  0  0  0  0  0  0
  150.4915  145.9695  160.0146 H   0  0  0  0  0  0  0  0  0  0  0  0
  152.9054  145.4528  160.3994 H   0  0  0  0  0  0  0  0  0  0  0  0
  151.8737  144.1809  161.0101 H   0  0  0  0  0  0  0  0  0  0  0  0
  153.3896  144.1546  158.3547 H   0  0  0  0  0  0  0  0  0  0  0  0
  153.7643  143.1941  159.7621 H   0  0  0  0  0  0  0  0  0  0  0  0
  151.6608  141.9572  159.5780 H   0  0  0  0  0  0  0  0  0  0  0  0
  152.5171  141.8575  158.0640 H   0  0  0  0  0  0  0  0  0  0  0  0
  1  2  1  0  0  0  0
  1 22  1  0  0  0  0
  2  3  1  0  0  0  0
  2 23  1  0  0  0  0
  2 24  1  0  0  0  0
  3  4  1  0  0  0  0
  3 25  1  0  0  0  0
  3 26  1  0  0  0  0
  4  5  1  0  0  0  0
  4 27  1  0  0  0  0
  4 28  1  0  0  0  0
  5 13  1  0  0  0  0
  5  6  2  0  0  0  0
  6  7  1  0  0  0  0
  7 12  2  0  0  0  0
  7  8  1  0  0  0  0
  8  9  2  0  0  0  0
  8 29  1  0  0  0  0
  9 10  1  0  0  0  0
  9 30  1  0  0  0  0
 10 11  2  0  0  0  0
 10 31  1  0  0  0  0
 11 12  1  0  0  0  0
 11 32  1  0  0  0  0
 12 13  1  0  0  0  0
 13 14  1  0  0  0  0
 14 15  1  0  0  0  0
 14 33  1  0  0  0  0
 14 34  1  0  0  0  0
 15 21  1  0  0  0  0
 15 16  1  0  0  0  0
 15 17  1  0  0  0  0
 16 35  1  0  0  0  0
 17 18  1  0  0  0  0
 17 36  1  0  0  0  0
 17 37  1  0  0  0  0
 18 19  1  0  0  0  0
 18 38  1  0  0  0  0
 18 39  1  0  0  0  0
 19 20  1  0  0  0  0
 19 40  1  0  0  0  0
 19 41  1  0  0  0  0
 20 21  1  0  0  0  0
 20 42  1  0  0  0  0
 20 43  1  0  0  0  0
 21 44  1  0  0  0  0
 21 45  1  0  0  0  0
M  END
> <s_m_source_file>
AV-unprocessed.smi

> <i_m_source_file_index>
1542

> <i_lp_mmshare_version>
43012

> <i_f3d_flags>
0

> <s_epik_input>
W09IXVtDSDJdW0NIMl1bQ0gyXWMobjEpbihjKGMxMilbY0hdW2NIXVtjSF1bY0hdMilbQ0gyXUMzKFtPSF0pW0NIMl1bQ0gyXVtDSDJdW0NIMl1bQ0gyXTM=

> <s_epik_cmdline>
J2VwaWtfcHl0aG9uJywgJy1waCcsICc3LjAnLCAnLXRuJywgJzgnLCAnLW1hJywgJzIwMCcsICctbWV0YWxfYmluZGluZycsICctaW1hZScsICc8aW5maWxlLm1hZT4nLCAnLW9tYWUnLCAnPG91dGZpbGUubWFlPic=

> <r_epik_Ionization_Penalty>
0.294093

> <r_epik_Ionization_Penalty_Charging>
0

> <r_epik_Ionization_Penalty_Neutral>
0.294093

> <r_epik_State_Penalty>
0.287281

> <r_epik_Charging_Adjusted_Penalty>
0.287281

> <i_epik_Tot_Q>
0

> <i_epik_Tot_abs_Q>
0

> <r_epik_Metal_State_Penalty>
0.000369578

> <b_epik_Metal_Only>
0

> <s_lp_Force_Field>
OPLS_2005

> <r_lp_Energy>
13.7601

> <b_lp_Chiralities_Consistent>
1

> <s_lp_Variant>
AV-unprocessed.smi:1542-1

> <Gold.Version>
5.8.1

> <Gold.Id.Protein>
6NUR|6NUR_protein|mol2

> <Gold.PLP.Fitness>
53.1911

> <Gold.PLP.PLP>
-45.3181

> <Gold.PLP.part.hbond>
-3.0000

> <Gold.PLP.part.metal>
0.0000

> <Gold.PLP.part.buried>
-2.1254

> <Gold.PLP.part.nonpolar>
-40.6198

> <Gold.PLP.part.repulsive>
0.0958

> <Gold.PLP.ligand.clash>
0.0000

> <Gold.PLP.ligand.torsion>
0.7090

> <Gold.PLP.Chemscore.Hbond>
3.0000

> <Gold.PLP.Chemscore.CHOScore>
0.0000

> <Gold.PLP.Chemscore.Metal>
0.0000

> <Gold.Chemscore.Hbonds>
donor molecule, donor type, donor heavy atom, donor atom, acceptor molecule, acceptor atom, score
      L1  H     1    22       P1 10175  0.95
      L1  H    16    35       P1  8028  1.00
      P1  H  7989  7998       L1     6  1.00

> <Gold.PLP.Chemscore.Internal.Correction>
0.2910

> <Gold.Rescore>
     Score         DG    S(hbond)    S(metal)    S(lipo)     H(rot)  DE(clash)    DE(int)     intcor
     18.80     -19.90       2.21        0.00     120.16       2.74       0.30       0.80       ----

> <Gold.Chemscore.Fitness>
18.7977

> <Gold.Chemscore.DG>
-19.8953

> <Gold.Chemscore.ZeroCoef>
-5.4800

> <Gold.Chemscore.Hbond>
2.2106

> <Gold.Chemscore.Metal>
0.0000

> <Gold.Chemscore.Lipo>
120.1605

> <Gold.Chemscore.Internal_Hbond>
0.0000

> <Gold.Chemscore.DEClash>
0.3020

> <Gold.Chemscore.DEInternal>
0.7955

> <Gold.Chemscore.Rot>
2.7449

> <Gold.Chemscore.Internal.Correction>
   9.000000E+99

> <Gold.Chemscore.Hbonds>
donor molecule, donor type, donor heavy atom, donor atom, acceptor molecule, acceptor atom, score
      L1  H     1    22       P1 10175  0.21
      L1  H    16    35       P1  8028  0.96
      P1  H  7989  7998       L1     6  0.30

> <Gold.Chemscore.Hbond.Weighted>
-7.3834

> <Gold.Chemscore.Metal.Weighted>
-0.0000

> <Gold.Chemscore.Lipo.Weighted>
-14.0588

> <Gold.Chemscore.Internal_Hbond.Weighted>
0.0000

> <Gold.Chemscore.DEClash.Weighted>
0.3020

> <Gold.Chemscore.DEInternal.Weighted>
0.7955

> <Gold.Chemscore.Rot.Weighted>
7.0269

> <Gold.Chemscore.Internal.Correction.Weighted>
   9.000000E+99

> <Gold.Protein.RotatedTorsions>
[ 6907 6896 6895 6894 ] final  -53.57 input  -60.11 | X-H torsion
[ 7974 7965 7964 7962 ] final  -20.16 input  175.53 | X-H torsion
[ 8008 7997 7996 7995 ] final -107.81 input   59.86 | X-H torsion
[ 10167 10162 10161 10158 ] final   23.70 input  -65.29 | X-H torsion
[ 10718 10713 10712 10709 ] final -111.87 input   66.30 | X-H torsion
[ 10763 10752 10751 10750 ] final  179.16 input  -60.55 | X-H torsion
[ 11005 11000 10999 10996 ] final   74.72 input  -57.11 | X-H torsion

> <Gold.Protein.ActiveResidues>
 VAL166  LYS551  ARG553  GLY616  TRP617  ASP618  TYR619  PRO620  LYS621  CYS622 
 ASP623  PHE694  ASN695  SER759  ASP760  ASP761  ALA762  ILE779  LEU786  VAL792 
 PHE793  MET794  SER795  GLU796  ALA797  LYS798  CYS799  TRP800  GLU811  SER814 

> <Gold.Protein.RotatedAtoms>
  150.8415  134.7708  159.6935 H   0  0  0  0  0  0  0  0  0  0  0  0  # atno 6907 bound_to 6896
  152.4501  134.5408  159.9848 H   0  0  0  0  0  0  0  0  0  0  0  0  # atno 6908 bound_to 6896
  151.5547  133.3374  159.2995 H   0  0  0  0  0  0  0  0  0  0  0  0  # atno 6909 bound_to 6896
  146.1803  140.4163  142.8497 H   0  0  0  0  0  0  0  0  0  0  0  0  # atno 7974 bound_to 7965
  154.9349  140.0404  157.2067 H   0  0  0  0  0  0  0  0  0  0  0  0  # atno 8008 bound_to 7997
  154.8125  140.2870  155.5821 H   0  0  0  0  0  0  0  0  0  0  0  0  # atno 8009 bound_to 7997
  156.2973  140.2534  156.3016 H   0  0  0  0  0  0  0  0  0  0  0  0  # atno 8010 bound_to 7997
  140.5248  143.9942  150.6435 H   0  0  0  0  0  0  0  0  0  0  0  0  # atno 10167 bound_to 10162
  156.0672  130.5890  150.8432 H   0  0  0  0  0  0  0  0  0  0  0  0  # atno 10718 bound_to 10713
  154.5171  135.2792  155.1294 H   0  0  0  0  0  0  0  0  0  0  0  0  # atno 10763 bound_to 10752
  154.2866  135.6275  153.5372 H   0  0  0  0  0  0  0  0  0  0  0  0  # atno 10764 bound_to 10752
  152.9929  135.5664  154.5650 H   0  0  0  0  0  0  0  0  0  0  0  0  # atno 10765 bound_to 10752
  139.9378  134.7456  156.1182 H   0  0  0  0  0  0  0  0  0  0  0  0  # atno 11005 bound_to 11000
  144.8304  140.6697  143.6295 LP  0  0  0  0  0  0  0  0  0  0  0  0  # atno 17320 bound_to 7965
  145.4095  139.1582  143.4133 LP  0  0  0  0  0  0  0  0  0  0  0  0  # atno 17321 bound_to 7965
  140.3301  143.3083  152.0696 LP  0  0  0  0  0  0  0  0  0  0  0  0  # atno 17342 bound_to 10162
  139.4935  144.6515  151.6665 LP  0  0  0  0  0  0  0  0  0  0  0  0  # atno 17343 bound_to 10162
  157.5721  131.0946  150.9401 LP  0  0  0  0  0  0  0  0  0  0  0  0  # atno 17370 bound_to 10713
  156.9615  130.5457  149.5286 LP  0  0  0  0  0  0  0  0  0  0  0  0  # atno 17371 bound_to 10713
  141.0999  133.6681  156.2730 LP  0  0  0  0  0  0  0  0  0  0  0  0  # atno 17394 bound_to 11000
  140.6031  134.5534  157.5521 LP  0  0  0  0  0  0  0  0  0  0  0  0  # atno 17395 bound_to 11000

$$$$
