AV-unprocessed.smi:1762|AV-procd|sdf|7124|dock7
  -GOLD-   22720 8363D 1   1.00000     0.00000
 Structure written by MMmdl.
 52 53  0  0  0  0  0  0  0  0  3 V2000
  146.5733  139.2466  155.8832 C   0  0  0  0  0  0  0  0  0  0  0  0
  147.1576  139.2870  157.3067 C   0  0  1  0  0  0  0  0  0  0  0  0
  148.5230  138.5817  157.4267 C   0  0  0  0  0  0  0  0  0  0  0  0
  149.6109  139.3829  156.7999 N   0  3  2  0  0  0  0  0  0  0  0  0
  150.9667  138.7371  156.8123 C   0  0  2  0  0  0  0  0  0  0  0  0
  152.0721  139.7773  156.5050 C   0  0  0  0  0  0  0  0  0  0  0  0
  152.0970  140.3012  155.3861 O   0  0  0  0  0  0  0  0  0  0  0  0
  152.8666  139.9845  157.5896 N   0  5  0  0  0  0  0  0  0  0  0  0
  152.3682  140.2514  158.9374 C   0  0  0  0  0  0  0  0  0  0  0  0
  153.3234  141.2127  159.6822 C   0  0  0  0  0  0  0  0  0  0  0  0
  152.8724  142.6711  159.7380 C   0  0  0  0  0  0  0  0  0  0  0  0
  152.8070  143.4486  158.5589 C   0  0  0  0  0  0  0  0  0  0  0  0
  152.3994  144.7925  158.6571 C   0  0  0  0  0  0  0  0  0  0  0  0
  152.0798  145.3133  159.9254 C   0  0  0  0  0  0  0  0  0  0  0  0
  152.1835  144.4627  161.0438 C   0  0  0  0  0  0  0  0  0  0  0  0
  152.5741  143.1729  160.9618 N   0  0  0  0  0  0  0  0  0  0  0  0
  151.1022  137.4801  155.8868 C   0  0  0  0  0  0  0  0  0  0  0  0
  151.0421  137.8309  154.3870 C   0  0  0  0  0  0  0  0  0  0  0  0
  150.1127  136.3390  156.2047 C   0  0  0  0  0  0  0  0  0  0  0  0
  149.6064  140.7472  157.4006 C   0  0  0  0  0  0  0  0  0  0  0  0
  148.2374  141.4233  157.2245 C   0  0  2  0  0  0  0  0  0  0  0  0
  148.1912  142.8034  157.8900 C   0  0  0  0  0  0  0  0  0  0  0  0
  147.2324  140.6136  157.8237 O   0  0  0  0  0  0  0  0  0  0  0  0
  146.3919  138.2182  155.5701 H   0  0  0  0  0  0  0  0  0  0  0  0
  147.2419  139.6933  155.1476 H   0  0  0  0  0  0  0  0  0  0  0  0
  145.6218  139.7766  155.8375 H   0  0  0  0  0  0  0  0  0  0  0  0
  146.4542  138.7560  157.9487 H   0  0  0  0  0  0  0  0  0  0  0  0
  148.7646  138.4181  158.4781 H   0  0  0  0  0  0  0  0  0  0  0  0
  148.4245  137.5995  156.9692 H   0  0  0  0  0  0  0  0  0  0  0  0
  151.0968  138.3691  157.8334 H   0  0  0  0  0  0  0  0  0  0  0  0
  151.3657  140.6793  158.9170 H   0  0  0  0  0  0  0  0  0  0  0  0
  152.2848  139.3372  159.5271 H   0  0  0  0  0  0  0  0  0  0  0  0
  153.4513  140.8587  160.7059 H   0  0  0  0  0  0  0  0  0  0  0  0
  154.3161  141.1663  159.2318 H   0  0  0  0  0  0  0  0  0  0  0  0
  153.0552  143.0194  157.5992 H   0  0  0  0  0  0  0  0  0  0  0  0
  152.3338  145.4125  157.7752 H   0  0  0  0  0  0  0  0  0  0  0  0
  151.7629  146.3394  160.0380 H   0  0  0  0  0  0  0  0  0  0  0  0
  151.9483  144.8296  162.0319 H   0  0  0  0  0  0  0  0  0  0  0  0
  152.1066  137.0812  156.0220 H   0  0  0  0  0  0  0  0  0  0  0  0
  150.0477  138.1596  154.0828 H   0  0  0  0  0  0  0  0  0  0  0  0
  151.2990  136.9669  153.7735 H   0  0  0  0  0  0  0  0  0  0  0  0
  151.7447  138.6278  154.1412 H   0  0  0  0  0  0  0  0  0  0  0  0
  149.0879  136.6092  155.9506 H   0  0  0  0  0  0  0  0  0  0  0  0
  150.1293  136.0614  157.2580 H   0  0  0  0  0  0  0  0  0  0  0  0
  150.3589  135.4453  155.6308 H   0  0  0  0  0  0  0  0  0  0  0  0
  149.8613  140.6768  158.4595 H   0  0  0  0  0  0  0  0  0  0  0  0
  150.3575  141.3893  156.9416 H   0  0  0  0  0  0  0  0  0  0  0  0
  148.0268  141.5542  156.1627 H   0  0  0  0  0  0  0  0  0  0  0  0
  148.9389  143.4710  157.4608 H   0  0  0  0  0  0  0  0  0  0  0  0
  148.3821  142.7321  158.9612 H   0  0  0  0  0  0  0  0  0  0  0  0
  147.2148  143.2692  157.7553 H   0  0  0  0  0  0  0  0  0  0  0  0
  149.3681  139.4921  155.8256 H   0  0  0  0  0  0  0  0  0  0  0  0
  1  2  1  0  0  0  0
  1 24  1  0  0  0  0
  1 25  1  0  0  0  0
  1 26  1  0  0  0  0
  2 23  1  0  0  0  0
  2  3  1  0  0  0  0
  2 27  1  0  0  0  0
  3  4  1  0  0  0  0
  3 28  1  0  0  0  0
  3 29  1  0  0  0  0
  4  5  1  0  0  0  0
  4 20  1  0  0  0  0
  4 52  1  0  0  0  0
  5  6  1  0  0  0  0
  5 17  1  0  0  0  0
  5 30  1  0  0  0  0
  6  7  2  0  0  0  0
  6  8  1  0  0  0  0
  8  9  1  0  0  0  0
  9 10  1  0  0  0  0
  9 31  1  0  0  0  0
  9 32  1  0  0  0  0
 10 11  1  0  0  0  0
 10 33  1  0  0  0  0
 10 34  1  0  0  0  0
 11 16  1  0  0  0  0
 11 12  2  0  0  0  0
 12 13  1  0  0  0  0
 12 35  1  0  0  0  0
 13 14  2  0  0  0  0
 13 36  1  0  0  0  0
 14 15  1  0  0  0  0
 14 37  1  0  0  0  0
 15 16  2  0  0  0  0
 15 38  1  0  0  0  0
 17 18  1  0  0  0  0
 17 19  1  0  0  0  0
 17 39  1  0  0  0  0
 18 40  1  0  0  0  0
 18 41  1  0  0  0  0
 18 42  1  0  0  0  0
 19 43  1  0  0  0  0
 19 44  1  0  0  0  0
 19 45  1  0  0  0  0
 20 21  1  0  0  0  0
 20 46  1  0  0  0  0
 20 47  1  0  0  0  0
 21 22  1  0  0  0  0
 21 23  1  0  0  0  0
 21 48  1  0  0  0  0
 22 49  1  0  0  0  0
 22 50  1  0  0  0  0
 22 51  1  0  0  0  0
M  CHG  1   4   1
M  CHG  1   8  -1
M  END
> <s_m_source_file>
AV-unprocessed.smi

> <i_m_source_file_index>
1762

> <i_lp_mmshare_version>
43012

> <i_f3d_flags>
0

> <s_epik_input>
W0NIM11bQ0BASF0xW0NIMl1OKFtDSDJdW0NASF0oTzEpW0NIM10pW0NAQEhdKFtDSF0oW0NIM10pW0NIM10pQyg9TylbTkhdW0NIMl1bQ0gyXWMyW2NIXVtjSF1bY0hdW2NIXW4y

> <s_epik_cmdline>
J2VwaWtfcHl0aG9uJywgJy1waCcsICc3LjAnLCAnLXRuJywgJzgnLCAnLW1hJywgJzIwMCcsICctbWV0YWxfYmluZGluZycsICctaW1hZScsICc8aW5maWxlLm1hZT4nLCAnLW9tYWUnLCAnPG91dGZpbGUubWFlPic=

> <r_epik_Ionization_Penalty>
7.82966

> <r_epik_Ionization_Penalty_Charging>
7.7461

> <r_epik_Ionization_Penalty_Neutral>
0.0835571

> <r_epik_State_Penalty>
8.52273

> <r_epik_Charging_Adjusted_Penalty>
16.2688

> <i_epik_Tot_Q>
0

> <i_epik_Tot_abs_Q>
2

> <r_epik_Metal_State_Penalty>
4.47451

> <b_epik_Metal_Only>
1

> <s_lp_Force_Field>
OPLS_2005

> <r_lp_Energy>
24.9826

> <b_lp_Chiralities_Consistent>
1

> <s_lp_Variant>
AV-unprocessed.smi:1762-26

> <Gold.Version>
5.8.1

> <Gold.Id.Protein>
6NUR|6NUR_protein|mol2

> <Gold.PLP.Fitness>
47.8842

> <Gold.PLP.PLP>
-41.7356

> <Gold.PLP.part.hbond>
-3.0000

> <Gold.PLP.part.metal>
0.0000

> <Gold.PLP.part.buried>
-6.1744

> <Gold.PLP.part.nonpolar>
-32.8852

> <Gold.PLP.part.repulsive>
0.0882

> <Gold.PLP.ligand.clash>
0.0000

> <Gold.PLP.ligand.torsion>
1.2537

> <Gold.PLP.Chemscore.Hbond>
2.7680

> <Gold.PLP.Chemscore.CHOScore>
0.0000

> <Gold.PLP.Chemscore.Metal>
0.0000

> <Gold.Chemscore.Hbonds>
donor molecule, donor type, donor heavy atom, donor atom, acceptor molecule, acceptor atom, score
      P1  H  7989  7998       L1     7  0.69
      P1  H  7997  8010       L1     8  1.70

> <Gold.PLP.Chemscore.Internal.Correction>
0.3521

> <Gold.Rescore>
     Score         DG    S(hbond)    S(metal)    S(lipo)     H(rot)  DE(clash)    DE(int)     intcor
     17.69     -19.35       1.75        0.00     103.68       1.60       0.37       1.29       ----

> <Gold.Chemscore.Fitness>
17.6935

> <Gold.Chemscore.DG>
-19.3502

> <Gold.Chemscore.ZeroCoef>
-5.4800

> <Gold.Chemscore.Hbond>
1.7481

> <Gold.Chemscore.Metal>
0.0000

> <Gold.Chemscore.Lipo>
103.6806

> <Gold.Chemscore.Internal_Hbond>
0.0000

> <Gold.Chemscore.DEClash>
0.3667

> <Gold.Chemscore.DEInternal>
1.2900

> <Gold.Chemscore.Rot>
1.6012

> <Gold.Chemscore.Internal.Correction>
   9.000000E+99

> <Gold.Chemscore.Hbonds>
donor molecule, donor type, donor heavy atom, donor atom, acceptor molecule, acceptor atom, score
      P1  H  7989  7998       L1     7  0.65
      P1  H  7997  8010       L1     8  0.14

> <Gold.Chemscore.Hbond.Weighted>
-5.8385

> <Gold.Chemscore.Metal.Weighted>
-0.0000

> <Gold.Chemscore.Lipo.Weighted>
-12.1306

> <Gold.Chemscore.Internal_Hbond.Weighted>
0.0000

> <Gold.Chemscore.DEClash.Weighted>
0.3667

> <Gold.Chemscore.DEInternal.Weighted>
1.2900

> <Gold.Chemscore.Rot.Weighted>
4.0990

> <Gold.Chemscore.Internal.Correction.Weighted>
   9.000000E+99

> <Gold.Protein.RotatedTorsions>
[ 6907 6896 6895 6894 ] final  -15.56 input  -60.11 | X-H torsion
[ 7974 7965 7964 7962 ] final -106.98 input  175.53 | X-H torsion
[ 8008 7997 7996 7995 ] final   56.53 input   59.86 | X-H torsion
[ 10167 10162 10161 10158 ] final  -42.19 input  -65.29 | X-H torsion
[ 10718 10713 10712 10709 ] final  179.87 input   66.30 | X-H torsion
[ 10763 10752 10751 10750 ] final  -39.05 input  -60.55 | X-H torsion
[ 11005 11000 10999 10996 ] final   37.52 input  -57.11 | X-H torsion

> <Gold.Protein.ActiveResidues>
 VAL166  LYS551  ARG553  GLY616  TRP617  ASP618  TYR619  PRO620  LYS621  CYS622 
 ASP623  PHE694  ASN695  SER759  ASP760  ASP761  ALA762  ILE779  LEU786  VAL792 
 PHE793  MET794  SER795  GLU796  ALA797  LYS798  CYS799  TRP800  GLU811  SER814 

> <Gold.Protein.RotatedAtoms>
  151.3221  135.0821  159.9309 H   0  0  0  0  0  0  0  0  0  0  0  0  # atno 6907 bound_to 6896
  152.5254  133.9628  159.7735 H   0  0  0  0  0  0  0  0  0  0  0  0  # atno 6908 bound_to 6896
  150.9951  133.6058  159.2733 H   0  0  0  0  0  0  0  0  0  0  0  0  # atno 6909 bound_to 6896
  145.2110  140.9096  143.3314 H   0  0  0  0  0  0  0  0  0  0  0  0  # atno 7974 bound_to 7965
  155.5190  140.3479  155.4403 H   0  0  0  0  0  0  0  0  0  0  0  0  # atno 8008 bound_to 7997
  156.0798  140.1383  156.9754 H   0  0  0  0  0  0  0  0  0  0  0  0  # atno 8009 bound_to 7997
  154.4573  140.0948  156.6770 H   0  0  0  0  0  0  0  0  0  0  0  0  # atno 8010 bound_to 7997
  140.6977  143.3051  151.3174 H   0  0  0  0  0  0  0  0  0  0  0  0  # atno 10167 bound_to 10162
  156.8693  130.9778  151.3075 H   0  0  0  0  0  0  0  0  0  0  0  0  # atno 10718 bound_to 10713
  153.9230  135.6780  153.4747 H   0  0  0  0  0  0  0  0  0  0  0  0  # atno 10763 bound_to 10752
  153.1018  135.4824  154.8878 H   0  0  0  0  0  0  0  0  0  0  0  0  # atno 10764 bound_to 10752
  154.7468  135.3174  154.8587 H   0  0  0  0  0  0  0  0  0  0  0  0  # atno 10765 bound_to 10752
  140.2217  134.3633  155.8002 H   0  0  0  0  0  0  0  0  0  0  0  0  # atno 11005 bound_to 11000
  144.9856  139.3740  143.6240 LP  0  0  0  0  0  0  0  0  0  0  0  0  # atno 17320 bound_to 7965
  146.3397  139.9015  142.8793 LP  0  0  0  0  0  0  0  0  0  0  0  0  # atno 17321 bound_to 7965
  139.6454  144.0461  152.2587 LP  0  0  0  0  0  0  0  0  0  0  0  0  # atno 17342 bound_to 10162
  139.9980  144.6314  150.7755 LP  0  0  0  0  0  0  0  0  0  0  0  0  # atno 17343 bound_to 10162
  157.6205  130.8651  149.9100 LP  0  0  0  0  0  0  0  0  0  0  0  0  # atno 17370 bound_to 10713
  156.0735  130.3682  150.0727 LP  0  0  0  0  0  0  0  0  0  0  0  0  # atno 17371 bound_to 10713
  141.2222  133.7197  156.8587 LP  0  0  0  0  0  0  0  0  0  0  0  0  # atno 17394 bound_to 11000
  140.1842  134.9011  157.2985 LP  0  0  0  0  0  0  0  0  0  0  0  0  # atno 17395 bound_to 11000

$$$$
