AV-unprocessed.smi:2727|AV-procd|sdf|10521|dock1
  -GOLD-   2272014563D 1   1.00000     0.00000
 Structure written by MMmdl.
 40 41  0  0  0  0  0  0  0  0  1 V2000
  146.9379  133.2637  154.6860 O   0  0  0  0  0  0  0  0  0  0  0  0
  147.4283  134.0196  153.8468 C   0  0  0  0  0  0  0  0  0  0  0  0
  148.5561  134.7169  154.0485 N   0  0  0  0  0  0  0  0  0  0  0  0
  149.3483  134.6883  155.2731 C   0  0  0  0  0  0  0  0  0  0  0  0
  149.6104  136.1092  155.8134 C   0  0  0  0  0  0  0  0  0  0  0  0
  150.9870  136.6766  155.4228 C   0  0  0  0  0  0  0  0  0  0  0  0
  151.9963  136.2323  155.9734 O   0  0  0  0  0  0  0  0  0  0  0  0
  151.0541  137.6524  154.4838 N   0  0  0  0  0  0  0  0  0  0  0  0
  152.3357  138.2540  154.0948 C   0  0  0  0  0  0  0  0  0  0  0  0
  152.7803  139.3614  155.0724 C   0  0  0  0  0  0  0  0  0  0  0  0
  151.6488  140.2085  155.6951 C   0  0  0  0  0  0  0  0  0  0  0  0
  150.5182  140.6113  154.7277 C   0  0  0  0  0  0  0  0  0  0  0  0
  149.4279  139.5311  154.5617 C   0  0  0  0  0  0  0  0  0  0  0  0
  149.8935  138.2641  153.8206 C   0  0  0  0  0  0  0  0  0  0  0  0
  146.9188  134.2555  152.6261 N   0  0  0  0  0  0  0  0  0  0  0  0
  145.7482  133.6937  152.0565 C   0  0  0  0  0  0  0  0  0  0  0  0
  145.2348  132.4907  152.3188 N   0  0  0  0  0  0  0  0  0  0  0  0
  144.1054  132.4099  151.5172 C   0  0  0  0  0  0  0  0  0  0  0  0
  143.9987  133.5795  150.8096 C   0  0  0  0  0  0  0  0  0  0  0  0
  145.0381  134.4064  151.1425 O   0  0  0  0  0  0  0  0  0  0  0  0
  148.8881  135.3147  153.3060 H   0  0  0  0  0  0  0  0  0  0  0  0
  148.7981  134.1020  156.0101 H   0  0  0  0  0  0  0  0  0  0  0  0
  150.2870  134.1609  155.0922 H   0  0  0  0  0  0  0  0  0  0  0  0
  148.8421  136.7875  155.4406 H   0  0  0  0  0  0  0  0  0  0  0  0
  149.5265  136.0933  156.9001 H   0  0  0  0  0  0  0  0  0  0  0  0
  153.1141  137.4935  154.0119 H   0  0  0  0  0  0  0  0  0  0  0  0
  152.2642  138.6806  153.0939 H   0  0  0  0  0  0  0  0  0  0  0  0
  153.3547  138.9128  155.8837 H   0  0  0  0  0  0  0  0  0  0  0  0
  153.4765  140.0185  154.5502 H   0  0  0  0  0  0  0  0  0  0  0  0
  151.2208  139.6791  156.5475 H   0  0  0  0  0  0  0  0  0  0  0  0
  152.0968  141.1106  156.1129 H   0  0  0  0  0  0  0  0  0  0  0  0
  150.0377  141.5061  155.1245 H   0  0  0  0  0  0  0  0  0  0  0  0
  150.9279  140.8996  153.7589 H   0  0  0  0  0  0  0  0  0  0  0  0
  149.0313  139.2639  155.5415 H   0  0  0  0  0  0  0  0  0  0  0  0
  148.5901  139.9615  154.0125 H   0  0  0  0  0  0  0  0  0  0  0  0
  150.1380  138.5194  152.7890 H   0  0  0  0  0  0  0  0  0  0  0  0
  149.0640  137.5633  153.7301 H   0  0  0  0  0  0  0  0  0  0  0  0
  147.4229  134.9035  152.0393 H   0  0  0  0  0  0  0  0  0  0  0  0
  143.4725  131.5349  151.5129 H   0  0  0  0  0  0  0  0  0  0  0  0
  143.2942  133.9534  150.0814 H   0  0  0  0  0  0  0  0  0  0  0  0
  1  2  2  0  0  0  0
  2  3  1  0  0  0  0
  2 15  1  0  0  0  0
  3  4  1  0  0  0  0
  3 21  1  0  0  0  0
  4  5  1  0  0  0  0
  4 22  1  0  0  0  0
  4 23  1  0  0  0  0
  5  6  1  0  0  0  0
  5 24  1  0  0  0  0
  5 25  1  0  0  0  0
  6  7  2  0  0  0  0
  6  8  1  0  0  0  0
  8 14  1  0  0  0  0
  8  9  1  0  0  0  0
  9 10  1  0  0  0  0
  9 26  1  0  0  0  0
  9 27  1  0  0  0  0
 10 11  1  0  0  0  0
 10 28  1  0  0  0  0
 10 29  1  0  0  0  0
 11 12  1  0  0  0  0
 11 30  1  0  0  0  0
 11 31  1  0  0  0  0
 12 13  1  0  0  0  0
 12 32  1  0  0  0  0
 12 33  1  0  0  0  0
 13 14  1  0  0  0  0
 13 34  1  0  0  0  0
 13 35  1  0  0  0  0
 14 36  1  0  0  0  0
 14 37  1  0  0  0  0
 15 16  1  0  0  0  0
 15 38  1  0  0  0  0
 16 20  1  0  0  0  0
 16 17  2  0  0  0  0
 17 18  1  0  0  0  0
 18 19  2  0  0  0  0
 18 39  1  0  0  0  0
 19 20  1  0  0  0  0
 19 40  1  0  0  0  0
M  END
> <s_m_source_file>
AV-unprocessed.smi

> <i_m_source_file_index>
2727

> <i_lp_mmshare_version>
43012

> <i_f3d_flags>
0

> <s_epik_input>
bzFbY0hdW2NIXW5jMVtOSF1DKD1PKVtOSF1bQ0gyXVtDSDJdQyg9TylOMltDSDJdW0NIMl1bQ0gyXVtDSDJdW0NIMl1bQ0gyXTI=

> <s_epik_cmdline>
J2VwaWtfcHl0aG9uJywgJy1waCcsICc3LjAnLCAnLXRuJywgJzgnLCAnLW1hJywgJzIwMCcsICctbWV0YWxfYmluZGluZycsICctaW1hZScsICc8aW5maWxlLm1hZT4nLCAnLW9tYWUnLCAnPG91dGZpbGUubWFlPic=

> <r_lp_tautomer_probability>
0.785861

> <r_epik_Ionization_Penalty>
4.25735e-05

> <r_epik_Ionization_Penalty_Charging>
0

> <r_epik_Ionization_Penalty_Neutral>
4.25735e-05

> <r_epik_State_Penalty>
0.0209239

> <r_epik_Charging_Adjusted_Penalty>
0.0209239

> <i_epik_Tot_Q>
0

> <i_epik_Tot_abs_Q>
0

> <r_epik_Metal_State_Penalty>
0.0088118

> <b_epik_Metal_Only>
0

> <s_lp_Force_Field>
OPLS_2005

> <r_lp_Energy>
23.803

> <b_lp_Chiralities_Consistent>
1

> <s_lp_Variant>
AV-unprocessed.smi:2727-1

> <Gold.Version>
5.8.1

> <Gold.Id.Protein>
6NUR|6NUR_protein|mol2

> <Gold.PLP.Fitness>
42.6732

> <Gold.PLP.PLP>
-31.9170

> <Gold.PLP.part.hbond>
-3.0000

> <Gold.PLP.part.metal>
0.0000

> <Gold.PLP.part.buried>
-2.5319

> <Gold.PLP.part.nonpolar>
-26.9004

> <Gold.PLP.part.repulsive>
0.3456

> <Gold.PLP.ligand.clash>
0.0000

> <Gold.PLP.ligand.torsion>
0.6245

> <Gold.PLP.Chemscore.Hbond>
2.9920

> <Gold.PLP.Chemscore.CHOScore>
1.0000

> <Gold.PLP.Chemscore.Metal>
0.0000

> <Gold.Chemscore.Hbonds>
donor molecule, donor type, donor heavy atom, donor atom, acceptor molecule, acceptor atom, score
      L1  H     3    21       P1  7948  1.00
      L1  H    15    38       P1  7948  0.98
      P1  H 10752 10764       L1     7  1.00
      L1  C    19    40       P1 10186  1.00

> <Gold.PLP.Chemscore.Internal.Correction>
0.0292

> <Gold.Rescore>
     Score         DG    S(hbond)    S(metal)    S(lipo)     H(rot)  DE(clash)    DE(int)     intcor
     15.04     -16.81       2.53        0.00      61.95       1.70       0.07       1.69       ----

> <Gold.Chemscore.Fitness>
15.0443

> <Gold.Chemscore.DG>
-16.8063

> <Gold.Chemscore.ZeroCoef>
-5.4800

> <Gold.Chemscore.Hbond>
2.5259

> <Gold.Chemscore.Metal>
0.0000

> <Gold.Chemscore.Lipo>
61.9503

> <Gold.Chemscore.Internal_Hbond>
0.0000

> <Gold.Chemscore.DEClash>
0.0731

> <Gold.Chemscore.DEInternal>
1.6889

> <Gold.Chemscore.Rot>
1.7025

> <Gold.Chemscore.Internal.Correction>
   9.000000E+99

> <Gold.Chemscore.Hbonds>
donor molecule, donor type, donor heavy atom, donor atom, acceptor molecule, acceptor atom, score
      L1  H     3    21       P1  7948  0.65
      L1  H    15    38       P1  7948  0.82
      P1  H 10752 10764       L1     7  0.74

> <Gold.Chemscore.Hbond.Weighted>
-8.4365

> <Gold.Chemscore.Metal.Weighted>
-0.0000

> <Gold.Chemscore.Lipo.Weighted>
-7.2482

> <Gold.Chemscore.Internal_Hbond.Weighted>
0.0000

> <Gold.Chemscore.DEClash.Weighted>
0.0731

> <Gold.Chemscore.DEInternal.Weighted>
1.6889

> <Gold.Chemscore.Rot.Weighted>
4.3584

> <Gold.Chemscore.Internal.Correction.Weighted>
   9.000000E+99

> <Gold.Protein.RotatedTorsions>
[ 6907 6896 6895 6894 ] final -159.41 input  -60.11 | X-H torsion
[ 7974 7965 7964 7962 ] final  135.73 input  175.53 | X-H torsion
[ 8008 7997 7996 7995 ] final  -72.44 input   59.86 | X-H torsion
[ 10167 10162 10161 10158 ] final -103.51 input  -65.29 | X-H torsion
[ 10718 10713 10712 10709 ] final -120.99 input   66.30 | X-H torsion
[ 10763 10752 10751 10750 ] final  -46.03 input  -60.55 | X-H torsion
[ 11005 11000 10999 10996 ] final  132.37 input  -57.11 | X-H torsion

> <Gold.Protein.ActiveResidues>
 VAL166  LYS551  ARG553  GLY616  TRP617  ASP618  TYR619  PRO620  LYS621  CYS622 
 ASP623  PHE694  ASN695  SER759  ASP760  ASP761  ALA762  ILE779  LEU786  VAL792 
 PHE793  MET794  SER795  GLU796  ALA797  LYS798  CYS799  TRP800  GLU811  SER814 

> <Gold.Protein.RotatedAtoms>
  151.3331  133.3992  159.2664 H   0  0  0  0  0  0  0  0  0  0  0  0  # atno 6907 bound_to 6896
  150.9939  134.9268  159.7926 H   0  0  0  0  0  0  0  0  0  0  0  0  # atno 6908 bound_to 6896
  152.5255  134.3296  159.9230 H   0  0  0  0  0  0  0  0  0  0  0  0  # atno 6909 bound_to 6896
  144.9635  139.4684  143.5468 H   0  0  0  0  0  0  0  0  0  0  0  0  # atno 7974 bound_to 7965
  154.5167  140.0797  156.8094 H   0  0  0  0  0  0  0  0  0  0  0  0  # atno 8008 bound_to 7997
  155.3666  140.3420  155.4224 H   0  0  0  0  0  0  0  0  0  0  0  0  # atno 8009 bound_to 7997
  156.1635  140.1596  156.8559 H   0  0  0  0  0  0  0  0  0  0  0  0  # atno 8010 bound_to 7997
  140.2192  143.3688  152.0984 H   0  0  0  0  0  0  0  0  0  0  0  0  # atno 10167 bound_to 10162
  156.1302  130.6389  150.9608 H   0  0  0  0  0  0  0  0  0  0  0  0  # atno 10718 bound_to 10713
  154.0383  135.6647  153.4787 H   0  0  0  0  0  0  0  0  0  0  0  0  # atno 10763 bound_to 10752
  153.0512  135.5083  154.7867 H   0  0  0  0  0  0  0  0  0  0  0  0  # atno 10764 bound_to 10752
  154.6834  135.3049  154.9546 H   0  0  0  0  0  0  0  0  0  0  0  0  # atno 10765 bound_to 10752
  139.9786  134.9555  156.9572 H   0  0  0  0  0  0  0  0  0  0  0  0  # atno 11005 bound_to 11000
  146.3360  139.8800  142.8826 LP  0  0  0  0  0  0  0  0  0  0  0  0  # atno 17320 bound_to 7965
  145.2665  141.0094  143.3796 LP  0  0  0  0  0  0  0  0  0  0  0  0  # atno 17321 bound_to 7965
  139.5150  144.6957  151.5637 LP  0  0  0  0  0  0  0  0  0  0  0  0  # atno 17342 bound_to 10162
  140.6267  143.9155  150.6571 LP  0  0  0  0  0  0  0  0  0  0  0  0  # atno 17343 bound_to 10162
  157.6480  131.0901  150.8112 LP  0  0  0  0  0  0  0  0  0  0  0  0  # atno 17370 bound_to 10713
  156.8197  130.4980  149.5345 LP  0  0  0  0  0  0  0  0  0  0  0  0  # atno 17371 bound_to 10713
  140.5143  134.0970  155.7277 LP  0  0  0  0  0  0  0  0  0  0  0  0  # atno 17394 bound_to 11000
  141.1460  133.9053  157.2213 LP  0  0  0  0  0  0  0  0  0  0  0  0  # atno 17395 bound_to 11000

$$$$
