AV-unprocessed.smi:193|AV-procd|sdf|1519|dock1
  -GOLD-   2262019353D 1   1.00000     0.00000
 Structure written by MMmdl.
 61 65  0  0  0  0  0  0  0  0  1 V2000
  150.9362  138.0951  156.6725 C   0  0  0  0  0  0  0  0  0  0  0  0
  151.5882  139.4813  156.7801 C   0  0  1  0  0  0  0  0  0  0  0  0
  150.9064  140.5003  155.8405 C   0  0  0  0  0  0  0  0  0  0  0  0
  149.8218  141.2671  156.4515 N   0  0  0  0  0  0  0  0  0  0  0  0
  148.7741  141.4469  155.6074 C   0  0  0  0  0  0  0  0  0  0  0  0
  148.8693  141.0635  154.3053 N   0  0  0  0  0  0  0  0  0  0  0  0
  147.8293  141.2137  153.4800 C   0  0  0  0  0  0  0  0  0  0  0  0
  146.6207  141.7140  153.7433 N   0  0  0  0  0  0  0  0  0  0  0  0
  146.5187  142.1011  155.0470 C   0  0  0  0  0  0  0  0  0  0  0  0
  147.5357  141.9985  156.0381 C   0  0  0  0  0  0  0  0  0  0  0  0
  147.0650  142.4849  157.2509 N   0  0  0  0  0  0  0  0  0  0  0  0
  145.8398  142.8521  156.9934 C   0  0  0  0  0  0  0  0  0  0  0  0
  145.4325  142.6676  155.6913 N   0  0  0  0  0  0  0  0  0  0  0  0
  144.1278  142.9921  155.1340 C   0  0  0  0  0  0  0  0  0  0  0  0
  143.9783  144.4690  154.6889 C   0  0  0  0  0  0  0  0  0  0  0  0
  144.5629  144.5961  153.4044 O   0  0  0  0  0  0  0  0  0  0  0  0
  142.4876  144.8488  154.5822 C   0  0  0  0  0  0  0  0  0  0  0  0
  142.2884  146.3497  154.3061 C   0  0  0  0  0  0  0  0  0  0  0  0
  142.9476  147.1191  155.3044 O   0  0  0  0  0  0  0  0  0  0  0  0
  144.3562  146.9218  155.3092 C   0  0  0  0  0  0  0  0  0  0  0  0
  144.6852  145.4559  155.6439 C   0  0  0  0  0  0  0  0  0  0  0  0
  150.2551  142.4395  157.2143 C   0  0  0  0  0  0  0  0  0  0  0  0
  150.8693  142.0918  158.5775 C   0  0  0  0  0  0  0  0  0  0  0  0
  152.0888  141.2892  158.4700 N   0  0  0  0  0  0  0  0  0  0  0  0
  152.7875  141.3894  159.7429 C   0  0  1  0  0  0  0  0  0  0  0  0
  154.1643  142.0146  159.7324 C   0  0  0  0  0  0  0  0  0  0  0  0
  152.9975  142.7732  160.3192 C   0  0  2  0  0  0  0  0  0  0  0  0
  152.9081  143.0091  161.8109 C   0  0  0  0  0  0  0  0  0  0  0  0
  151.7245  139.8863  158.2642 C   0  0  0  0  0  0  0  0  0  0  0  0
  149.9239  138.1024  157.0758 H   0  0  0  0  0  0  0  0  0  0  0  0
  151.5059  137.3501  157.2284 H   0  0  0  0  0  0  0  0  0  0  0  0
  150.8821  137.7592  155.6365 H   0  0  0  0  0  0  0  0  0  0  0  0
  152.6018  139.3663  156.3935 H   0  0  0  0  0  0  0  0  0  0  0  0
  151.6607  141.2132  155.5042 H   0  0  0  0  0  0  0  0  0  0  0  0
  150.5769  139.9961  154.9306 H   0  0  0  0  0  0  0  0  0  0  0  0
  147.9869  140.8836  152.4639 H   0  0  0  0  0  0  0  0  0  0  0  0
  145.1971  143.2781  157.7500 H   0  0  0  0  0  0  0  0  0  0  0  0
  143.9352  142.3204  154.2962 H   0  0  0  0  0  0  0  0  0  0  0  0
  143.3767  142.7551  155.8888 H   0  0  0  0  0  0  0  0  0  0  0  0
  144.0189  144.1418  152.7795 H   0  0  0  0  0  0  0  0  0  0  0  0
  141.9957  144.2570  153.8090 H   0  0  0  0  0  0  0  0  0  0  0  0
  141.9851  144.6033  155.5188 H   0  0  0  0  0  0  0  0  0  0  0  0
  142.6584  146.6218  153.3164 H   0  0  0  0  0  0  0  0  0  0  0  0
  141.2260  146.5930  154.3223 H   0  0  0  0  0  0  0  0  0  0  0  0
  144.7781  147.2088  154.3449 H   0  0  0  0  0  0  0  0  0  0  0  0
  144.7996  147.5818  156.0549 H   0  0  0  0  0  0  0  0  0  0  0  0
  144.3670  145.2541  156.6675 H   0  0  0  0  0  0  0  0  0  0  0  0
  145.7662  145.3119  155.6241 H   0  0  0  0  0  0  0  0  0  0  0  0
  150.9639  143.0213  156.6233 H   0  0  0  0  0  0  0  0  0  0  0  0
  149.4024  143.0936  157.4012 H   0  0  0  0  0  0  0  0  0  0  0  0
  151.1206  143.0394  159.0565 H   0  0  0  0  0  0  0  0  0  0  0  0
  150.1342  141.6169  159.2291 H   0  0  0  0  0  0  0  0  0  0  0  0
  152.6457  140.5955  160.4750 H   0  0  0  0  0  0  0  0  0  0  0  0
  154.9027  141.6074  160.4199 H   0  0  0  0  0  0  0  0  0  0  0  0
  154.5595  142.3642  158.7806 H   0  0  0  0  0  0  0  0  0  0  0  0
  152.6250  143.6055  159.7245 H   0  0  0  0  0  0  0  0  0  0  0  0
  153.2992  142.1537  162.3625 H   0  0  0  0  0  0  0  0  0  0  0  0
  151.8694  143.1658  162.1024 H   0  0  0  0  0  0  0  0  0  0  0  0
  153.4841  143.8930  162.0845 H   0  0  0  0  0  0  0  0  0  0  0  0
  150.8151  139.6428  158.8159 H   0  0  0  0  0  0  0  0  0  0  0  0
  152.4978  139.2458  158.6918 H   0  0  0  0  0  0  0  0  0  0  0  0
  1  2  1  0  0  0  0
  1 30  1  0  0  0  0
  1 31  1  0  0  0  0
  1 32  1  0  0  0  0
  2 29  1  0  0  0  0
  2  3  1  0  0  0  0
  2 33  1  0  0  0  0
  3  4  1  0  0  0  0
  3 34  1  0  0  0  0
  3 35  1  0  0  0  0
  4  5  1  0  0  0  0
  4 22  1  0  0  0  0
  5 10  1  0  0  0  0
  5  6  2  0  0  0  0
  6  7  1  0  0  0  0
  7  8  2  0  0  0  0
  7 36  1  0  0  0  0
  8  9  1  0  0  0  0
  9 13  1  0  0  0  0
  9 10  2  0  0  0  0
 10 11  1  0  0  0  0
 11 12  2  0  0  0  0
 12 13  1  0  0  0  0
 12 37  1  0  0  0  0
 13 14  1  0  0  0  0
 14 15  1  0  0  0  0
 14 38  1  0  0  0  0
 14 39  1  0  0  0  0
 15 21  1  0  0  0  0
 15 16  1  0  0  0  0
 15 17  1  0  0  0  0
 16 40  1  0  0  0  0
 17 18  1  0  0  0  0
 17 41  1  0  0  0  0
 17 42  1  0  0  0  0
 18 19  1  0  0  0  0
 18 43  1  0  0  0  0
 18 44  1  0  0  0  0
 19 20  1  0  0  0  0
 20 21  1  0  0  0  0
 20 45  1  0  0  0  0
 20 46  1  0  0  0  0
 21 47  1  0  0  0  0
 21 48  1  0  0  0  0
 22 23  1  0  0  0  0
 22 49  1  0  0  0  0
 22 50  1  0  0  0  0
 23 24  1  0  0  0  0
 23 51  1  0  0  0  0
 23 52  1  0  0  0  0
 24 25  1  0  0  0  0
 24 29  1  0  0  0  0
 25 27  1  0  0  0  0
 25 26  1  0  0  0  0
 25 53  1  0  0  0  0
 26 27  1  0  0  0  0
 26 54  1  0  0  0  0
 26 55  1  0  0  0  0
 27 28  1  0  0  0  0
 27 56  1  0  0  0  0
 28 57  1  0  0  0  0
 28 58  1  0  0  0  0
 28 59  1  0  0  0  0
 29 60  1  0  0  0  0
 29 61  1  0  0  0  0
M  END
> <s_m_source_file>
AV-unprocessed.smi

> <i_m_source_file_index>
193

> <i_lp_mmshare_version>
43012

> <i_f3d_flags>
0

> <s_epik_input>
W0NIM11bQ0BASF0xW0NIMl1bQ0BIXTFOKFtDSDJdMilbQ0gyXVtDSDJdTihbQ0gyXVtDQEhdMltDSDNdKWMobltjSF1uMyljKGMzNCluW2NIXW40W0NIMl1DNShbT0hdKVtDSDJdW0NIMl1PW0NIMl1bQ0gyXTU=

> <s_epik_cmdline>
J2VwaWtfcHl0aG9uJywgJy1waCcsICc3LjAnLCAnLXRuJywgJzgnLCAnLW1hJywgJzIwMCcsICctbWV0YWxfYmluZGluZycsICctaW1hZScsICc8aW5maWxlLm1hZT4nLCAnLW9tYWUnLCAnPG91dGZpbGUubWFlPic=

> <r_lp_tautomer_probability>
1

> <r_epik_Ionization_Penalty>
1.45227

> <r_epik_Ionization_Penalty_Charging>
0

> <r_epik_Ionization_Penalty_Neutral>
1.45227

> <r_epik_State_Penalty>
2.02377

> <r_epik_Charging_Adjusted_Penalty>
2.02377

> <i_epik_Tot_Q>
0

> <i_epik_Tot_abs_Q>
0

> <r_epik_Metal_State_Penalty>
2.01937

> <b_epik_Metal_Only>
0

> <s_lp_Force_Field>
OPLS_2005

> <r_lp_Energy>
55.8214

> <b_lp_Chiralities_Consistent>
1

> <s_lp_Variant>
AV-unprocessed.smi:193-24

> <Gold.Version>
5.8.1

> <Gold.Id.Protein>
6NUR|6NUR_protein|mol2

> <Gold.PLP.Fitness>
49.4503

> <Gold.PLP.PLP>
-45.0476

> <Gold.PLP.part.hbond>
-1.0000

> <Gold.PLP.part.metal>
0.0000

> <Gold.PLP.part.buried>
-8.4318

> <Gold.PLP.part.nonpolar>
-36.0902

> <Gold.PLP.part.repulsive>
0.5333

> <Gold.PLP.ligand.clash>
0.0000

> <Gold.PLP.ligand.torsion>
1.5744

> <Gold.PLP.Chemscore.Hbond>
1.0000

> <Gold.PLP.Chemscore.CHOScore>
1.0000

> <Gold.PLP.Chemscore.Metal>
0.0000

> <Gold.Chemscore.Hbonds>
donor molecule, donor type, donor heavy atom, donor atom, acceptor molecule, acceptor atom, score
      L1  H    16    40       P1 10174  0.55
      L1  C     7    36       P1  7957  1.00

> <Gold.PLP.Chemscore.Internal.Correction>
1.5515

> <Gold.Rescore>
     Score         DG    S(hbond)    S(metal)    S(lipo)     H(rot)  DE(clash)    DE(int)     intcor
     13.79     -15.62       0.93        0.00     107.45       2.17       0.05       1.78       ----

> <Gold.Chemscore.Fitness>
13.7934

> <Gold.Chemscore.DG>
-15.6235

> <Gold.Chemscore.ZeroCoef>
-5.4800

> <Gold.Chemscore.Hbond>
0.9336

> <Gold.Chemscore.Metal>
0.0000

> <Gold.Chemscore.Lipo>
107.4466

> <Gold.Chemscore.Internal_Hbond>
0.0000

> <Gold.Chemscore.DEClash>
0.0468

> <Gold.Chemscore.DEInternal>
1.7833

> <Gold.Chemscore.Rot>
2.1664

> <Gold.Chemscore.Internal.Correction>
   9.000000E+99

> <Gold.Chemscore.Hbonds>
donor molecule, donor type, donor heavy atom, donor atom, acceptor molecule, acceptor atom, score
      L1  H    16    40       P1 10174  0.41

> <Gold.Chemscore.Hbond.Weighted>
-3.1182

> <Gold.Chemscore.Metal.Weighted>
-0.0000

> <Gold.Chemscore.Lipo.Weighted>
-12.5713

> <Gold.Chemscore.Internal_Hbond.Weighted>
0.0000

> <Gold.Chemscore.DEClash.Weighted>
0.0468

> <Gold.Chemscore.DEInternal.Weighted>
1.7833

> <Gold.Chemscore.Rot.Weighted>
5.5459

> <Gold.Chemscore.Internal.Correction.Weighted>
   9.000000E+99

> <Gold.Protein.RotatedTorsions>
[ 6907 6896 6895 6894 ] final  175.03 input  -60.11 | X-H torsion
[ 7974 7965 7964 7962 ] final   49.17 input  175.53 | X-H torsion
[ 8008 7997 7996 7995 ] final   57.99 input   59.86 | X-H torsion
[ 10167 10162 10161 10158 ] final   85.06 input  -65.29 | X-H torsion
[ 10718 10713 10712 10709 ] final   66.85 input   66.30 | X-H torsion
[ 10763 10752 10751 10750 ] final  172.69 input  -60.55 | X-H torsion
[ 11005 11000 10999 10996 ] final -165.49 input  -57.11 | X-H torsion

> <Gold.Protein.ActiveResidues>
 VAL166  LYS551  ARG553  GLY616  TRP617  ASP618  TYR619  PRO620  LYS621  CYS622 
 ASP623  PHE694  ASN695  SER759  ASP760  ASP761  ALA762  ILE779  LEU786  VAL792 
 PHE793  MET794  SER795  GLU796  ALA797  LYS798  CYS799  TRP800  GLU811  SER814 

> <Gold.Protein.RotatedAtoms>
  151.7429  133.3323  159.3370 H   0  0  0  0  0  0  0  0  0  0  0  0  # atno 6907 bound_to 6896
  150.7566  134.6262  159.6171 H   0  0  0  0  0  0  0  0  0  0  0  0  # atno 6908 bound_to 6896
  152.3519  134.6996  160.0285 H   0  0  0  0  0  0  0  0  0  0  0  0  # atno 6909 bound_to 6896
  146.0134  139.4569  142.9942 H   0  0  0  0  0  0  0  0  0  0  0  0  # atno 7974 bound_to 7965
  155.5427  140.3484  155.4450 H   0  0  0  0  0  0  0  0  0  0  0  0  # atno 8008 bound_to 7997
  156.0639  140.1347  156.9934 H   0  0  0  0  0  0  0  0  0  0  0  0  # atno 8009 bound_to 7997
  154.4493  140.0979  156.6543 H   0  0  0  0  0  0  0  0  0  0  0  0  # atno 8010 bound_to 7997
  139.9016  144.6326  150.8631 H   0  0  0  0  0  0  0  0  0  0  0  0  # atno 10167 bound_to 10162
  157.6194  130.9289  150.0163 H   0  0  0  0  0  0  0  0  0  0  0  0  # atno 10718 bound_to 10713
  154.4296  135.2759  155.1921 H   0  0  0  0  0  0  0  0  0  0  0  0  # atno 10763 bound_to 10752
  154.3833  135.6083  153.5806 H   0  0  0  0  0  0  0  0  0  0  0  0  # atno 10764 bound_to 10752
  152.9835  135.5885  154.4605 H   0  0  0  0  0  0  0  0  0  0  0  0  # atno 10765 bound_to 10752
  140.5751  134.5198  157.5169 H   0  0  0  0  0  0  0  0  0  0  0  0  # atno 11005 bound_to 11000
  145.7306  141.0043  143.1354 LP  0  0  0  0  0  0  0  0  0  0  0  0  # atno 17320 bound_to 7965
  144.6962  139.8980  143.7457 LP  0  0  0  0  0  0  0  0  0  0  0  0  # atno 17321 bound_to 7965
  140.7705  143.3432  151.2164 LP  0  0  0  0  0  0  0  0  0  0  0  0  # atno 17342 bound_to 10162
  139.7020  143.9517  152.2910 LP  0  0  0  0  0  0  0  0  0  0  0  0  # atno 17343 bound_to 10162
  156.1332  130.3643  149.9698 LP  0  0  0  0  0  0  0  0  0  0  0  0  # atno 17370 bound_to 10713
  156.7755  130.9202  151.3645 LP  0  0  0  0  0  0  0  0  0  0  0  0  # atno 17371 bound_to 10713
  139.9343  134.7904  156.0845 LP  0  0  0  0  0  0  0  0  0  0  0  0  # atno 17394 bound_to 11000
  141.1031  133.6670  156.2801 LP  0  0  0  0  0  0  0  0  0  0  0  0  # atno 17395 bound_to 11000

$$$$
