AV-unprocessed.smi:3011|AV-procd|sdf|11460|dock3
  -GOLD-   2272016393D 1   1.00000     0.00000
 Structure written by MMmdl.
 47 49  0  0  0  0  0  0  0  0  2 V2000
  153.7072  142.0297  161.3906 C   0  0  0  0  0  0  0  0  0  0  0  0
  152.7430  141.6121  160.4357 O   0  0  0  0  0  0  0  0  0  0  0  0
  151.9993  142.5783  159.7903 C   0  0  0  0  0  0  0  0  0  0  0  0
  152.0988  143.9644  160.0730 C   0  0  0  0  0  0  0  0  0  0  0  0
  151.3146  144.8952  159.3683 C   0  0  0  0  0  0  0  0  0  0  0  0
  150.4257  144.4542  158.3736 C   0  0  0  0  0  0  0  0  0  0  0  0
  150.3178  143.0816  158.0856 C   0  0  0  0  0  0  0  0  0  0  0  0
  151.1003  142.1341  158.7931 C   0  0  0  0  0  0  0  0  0  0  0  0
  151.0401  140.7744  158.5702 O   0  0  0  0  0  0  0  0  0  0  0  0
  150.0126  140.2674  157.7296 C   0  0  0  0  0  0  0  0  0  0  0  0
  150.3134  140.6693  156.2797 C   0  0  0  0  0  0  0  0  0  0  0  0
  149.6474  139.7851  155.3108 N   0  0  0  0  0  0  0  0  0  0  0  0
  150.1097  138.6914  154.6346 C   0  0  0  0  0  0  0  0  0  0  0  0
  151.4870  138.0971  154.6984 C   0  0  1  0  0  0  0  0  0  0  0  0
  152.5518  139.1313  154.3035 C   0  0  0  0  0  0  0  0  0  0  0  0
  151.7851  137.5769  156.0268 N   0  0  0  0  0  0  0  0  0  0  0  0
  152.0925  136.3001  156.2866 C   0  0  0  0  0  0  0  0  0  0  0  0
  152.1548  135.4350  155.4171 O   0  0  0  0  0  0  0  0  0  0  0  0
  149.0867  138.2462  153.8495 N   0  3  0  0  0  0  0  0  0  0  0  0
  147.9567  139.0396  154.0441 C   0  0  0  0  0  0  0  0  0  0  0  0
  146.6856  138.9682  153.4825 C   0  0  0  0  0  0  0  0  0  0  0  0
  145.7520  139.9368  153.9056 C   0  0  0  0  0  0  0  0  0  0  0  0
  146.0968  140.9253  154.8500 C   0  0  0  0  0  0  0  0  0  0  0  0
  147.3900  140.9888  155.4100 C   0  0  0  0  0  0  0  0  0  0  0  0
  148.3076  140.0278  154.9854 C   0  0  0  0  0  0  0  0  0  0  0  0
  154.2093  141.1533  161.7998 H   0  0  0  0  0  0  0  0  0  0  0  0
  153.2410  142.5601  162.2218 H   0  0  0  0  0  0  0  0  0  0  0  0
  154.4698  142.6642  160.9370 H   0  0  0  0  0  0  0  0  0  0  0  0
  152.7720  144.3413  160.8278 H   0  0  0  0  0  0  0  0  0  0  0  0
  151.3968  145.9490  159.5903 H   0  0  0  0  0  0  0  0  0  0  0  0
  149.8246  145.1693  157.8316 H   0  0  0  0  0  0  0  0  0  0  0  0
  149.6231  142.7813  157.3163 H   0  0  0  0  0  0  0  0  0  0  0  0
  149.9573  139.1804  157.8037 H   0  0  0  0  0  0  0  0  0  0  0  0
  149.0473  140.6774  158.0299 H   0  0  0  0  0  0  0  0  0  0  0  0
  150.0089  141.6984  156.0891 H   0  0  0  0  0  0  0  0  0  0  0  0
  151.3862  140.6326  156.0935 H   0  0  0  0  0  0  0  0  0  0  0  0
  151.5494  137.2757  153.9832 H   0  0  0  0  0  0  0  0  0  0  0  0
  152.3552  139.5355  153.3102 H   0  0  0  0  0  0  0  0  0  0  0  0
  153.5454  138.6825  154.2853 H   0  0  0  0  0  0  0  0  0  0  0  0
  152.5802  139.9689  155.0013 H   0  0  0  0  0  0  0  0  0  0  0  0
  151.7568  138.2281  156.7981 H   0  0  0  0  0  0  0  0  0  0  0  0
  152.2800  136.1305  157.3583 H   0  0  0  0  0  0  0  0  0  0  0  0
  146.4189  138.2107  152.7602 H   0  0  0  0  0  0  0  0  0  0  0  0
  144.7512  139.9202  153.4986 H   0  0  0  0  0  0  0  0  0  0  0  0
  145.3541  141.6496  155.1516 H   0  0  0  0  0  0  0  0  0  0  0  0
  147.6421  141.7492  156.1342 H   0  0  0  0  0  0  0  0  0  0  0  0
  149.1591  137.4488  153.2310 H   0  0  0  0  0  0  0  0  0  0  0  0
  1  2  1  0  0  0  0
  1 26  1  0  0  0  0
  1 27  1  0  0  0  0
  1 28  1  0  0  0  0
  2  3  1  0  0  0  0
  3  8  1  0  0  0  0
  3  4  2  0  0  0  0
  4  5  1  0  0  0  0
  4 29  1  0  0  0  0
  5  6  2  0  0  0  0
  5 30  1  0  0  0  0
  6  7  1  0  0  0  0
  6 31  1  0  0  0  0
  7  8  2  0  0  0  0
  7 32  1  0  0  0  0
  8  9  1  0  0  0  0
  9 10  1  0  0  0  0
 10 11  1  0  0  0  0
 10 33  1  0  0  0  0
 10 34  1  0  0  0  0
 11 12  1  0  0  0  0
 11 35  1  0  0  0  0
 11 36  1  0  0  0  0
 12 25  1  0  0  0  0
 12 13  1  0  0  0  0
 13 14  1  0  0  0  0
 13 19  2  0  0  0  0
 14 15  1  0  0  0  0
 14 16  1  0  0  0  0
 14 37  1  0  0  0  0
 15 38  1  0  0  0  0
 15 39  1  0  0  0  0
 15 40  1  0  0  0  0
 16 17  1  0  0  0  0
 16 41  1  0  0  0  0
 17 18  2  0  0  0  0
 17 42  1  0  0  0  0
 19 20  1  0  0  0  0
 19 47  1  0  0  0  0
 20 25  2  0  0  0  0
 20 21  1  0  0  0  0
 21 22  2  0  0  0  0
 21 43  1  0  0  0  0
 22 23  1  0  0  0  0
 22 44  1  0  0  0  0
 23 24  2  0  0  0  0
 23 45  1  0  0  0  0
 24 25  1  0  0  0  0
 24 46  1  0  0  0  0
M  CHG  1  19   1
M  END
> <s_m_source_file>
AV-unprocessed.smi

> <i_m_source_file_index>
3011

> <i_lp_mmshare_version>
43012

> <i_f3d_flags>
0

> <s_epik_input>
W0NIM11PYzFbY0hdW2NIXVtjSF1bY0hdYzFPW0NIMl1bQ0gyXW4oYyhuMilbQ0BIXShbQ0gzXSlbTkhdW0NIXT1PKWMoYzIzKVtjSF1bY0hdW2NIXVtjSF0z

> <s_epik_cmdline>
J2VwaWtfcHl0aG9uJywgJy1waCcsICc3LjAnLCAnLXRuJywgJzgnLCAnLW1hJywgJzIwMCcsICctbWV0YWxfYmluZGluZycsICctaW1hZScsICc8aW5maWxlLm1hZT4nLCAnLW9tYWUnLCAnPG91dGZpbGUubWFlPic=

> <r_lp_tautomer_probability>
1

> <r_epik_Ionization_Penalty>
1.14644

> <r_epik_Ionization_Penalty_Charging>
1.14644

> <r_epik_Ionization_Penalty_Neutral>
5.5802e-08

> <r_epik_State_Penalty>
1.20743

> <r_epik_Charging_Adjusted_Penalty>
2.35387

> <i_epik_Tot_Q>
1

> <i_epik_Tot_abs_Q>
1

> <r_epik_Metal_State_Penalty>
1.28856

> <b_epik_Metal_Only>
0

> <s_lp_Force_Field>
OPLS_2005

> <r_lp_Energy>
19.9928

> <b_lp_Chiralities_Consistent>
1

> <s_lp_Variant>
AV-unprocessed.smi:3011-4

> <Gold.Version>
5.8.1

> <Gold.Id.Protein>
6NUR|6NUR_protein|mol2

> <Gold.PLP.Fitness>
62.4490

> <Gold.PLP.PLP>
-54.7724

> <Gold.PLP.part.hbond>
-3.0000

> <Gold.PLP.part.metal>
0.0000

> <Gold.PLP.part.buried>
1.0010

> <Gold.PLP.part.nonpolar>
-52.5154

> <Gold.PLP.part.repulsive>
0.1890

> <Gold.PLP.ligand.clash>
0.0000

> <Gold.PLP.ligand.torsion>
0.5915

> <Gold.PLP.Chemscore.Hbond>
2.9272

> <Gold.PLP.Chemscore.CHOScore>
0.0000

> <Gold.PLP.Chemscore.Metal>
0.0000

> <Gold.Chemscore.Hbonds>
donor molecule, donor type, donor heavy atom, donor atom, acceptor molecule, acceptor atom, score
      L1  H    19    47       P1  7948  2.00

> <Gold.PLP.Chemscore.Internal.Correction>
0.0780

> <Gold.Rescore>
     Score         DG    S(hbond)    S(metal)    S(lipo)     H(rot)  DE(clash)    DE(int)     intcor
     16.93     -18.83       1.13        0.00     140.17       2.66       1.06       0.84       ----

> <Gold.Chemscore.Fitness>
16.9311

> <Gold.Chemscore.DG>
-18.8323

> <Gold.Chemscore.ZeroCoef>
-5.4800

> <Gold.Chemscore.Hbond>
1.1265

> <Gold.Chemscore.Metal>
0.0000

> <Gold.Chemscore.Lipo>
140.1741

> <Gold.Chemscore.Internal_Hbond>
0.0000

> <Gold.Chemscore.DEClash>
1.0635

> <Gold.Chemscore.DEInternal>
0.8377

> <Gold.Chemscore.Rot>
2.6604

> <Gold.Chemscore.Internal.Correction>
   9.000000E+99

> <Gold.Chemscore.Hbonds>
donor molecule, donor type, donor heavy atom, donor atom, acceptor molecule, acceptor atom, score
      L1  H    19    47       P1  7948  1.00
      P1  H 10752 10763       L1    18  0.01

> <Gold.Chemscore.Hbond.Weighted>
-3.7626

> <Gold.Chemscore.Metal.Weighted>
-0.0000

> <Gold.Chemscore.Lipo.Weighted>
-16.4004

> <Gold.Chemscore.Internal_Hbond.Weighted>
0.0000

> <Gold.Chemscore.DEClash.Weighted>
1.0635

> <Gold.Chemscore.DEInternal.Weighted>
0.8377

> <Gold.Chemscore.Rot.Weighted>
6.8106

> <Gold.Chemscore.Internal.Correction.Weighted>
   9.000000E+99

> <Gold.Protein.RotatedTorsions>
[ 6907 6896 6895 6894 ] final  -79.22 input  -60.11 | X-H torsion
[ 7974 7965 7964 7962 ] final   91.09 input  175.53 | X-H torsion
[ 8008 7997 7996 7995 ] final  128.07 input   59.86 | X-H torsion
[ 10167 10162 10161 10158 ] final  177.03 input  -65.29 | X-H torsion
[ 10718 10713 10712 10709 ] final  -76.10 input   66.30 | X-H torsion
[ 10763 10752 10751 10750 ] final   71.14 input  -60.55 | X-H torsion
[ 11005 11000 10999 10996 ] final   36.67 input  -57.11 | X-H torsion

> <Gold.Protein.ActiveResidues>
 VAL166  LYS551  ARG553  GLY616  TRP617  ASP618  TYR619  PRO620  LYS621  CYS622 
 ASP623  PHE694  ASN695  SER759  ASP760  ASP761  ALA762  ILE779  LEU786  VAL792 
 PHE793  MET794  SER795  GLU796  ALA797  LYS798  CYS799  TRP800  GLU811  SER814 

> <Gold.Protein.RotatedAtoms>
  150.6954  134.4153  159.5180 H   0  0  0  0  0  0  0  0  0  0  0  0  # atno 6907 bound_to 6896
  152.1905  134.8673  160.0527 H   0  0  0  0  0  0  0  0  0  0  0  0  # atno 6908 bound_to 6896
  151.9630  133.3666  159.4079 H   0  0  0  0  0  0  0  0  0  0  0  0  # atno 6909 bound_to 6896
  145.5102  139.2277  143.2728 H   0  0  0  0  0  0  0  0  0  0  0  0  # atno 7974 bound_to 7965
  156.2906  140.2653  156.2376 H   0  0  0  0  0  0  0  0  0  0  0  0  # atno 8008 bound_to 7997
  155.0010  140.0388  157.2378 H   0  0  0  0  0  0  0  0  0  0  0  0  # atno 8009 bound_to 7997
  154.7602  140.2759  155.6226 H   0  0  0  0  0  0  0  0  0  0  0  0  # atno 8010 bound_to 7997
  139.5237  144.2846  152.0517 H   0  0  0  0  0  0  0  0  0  0  0  0  # atno 10167 bound_to 10162
  156.0186  130.4457  150.3143 H   0  0  0  0  0  0  0  0  0  0  0  0  # atno 10718 bound_to 10713
  153.0382  135.5148  154.7548 H   0  0  0  0  0  0  0  0  0  0  0  0  # atno 10763 bound_to 10752
  154.6508  135.2925  154.9992 H   0  0  0  0  0  0  0  0  0  0  0  0  # atno 10764 bound_to 10752
  154.0877  135.6655  153.4900 H   0  0  0  0  0  0  0  0  0  0  0  0  # atno 10765 bound_to 10752
  140.2302  134.3536  155.7967 H   0  0  0  0  0  0  0  0  0  0  0  0  # atno 11005 bound_to 11000
  146.2171  140.5909  142.9033 LP  0  0  0  0  0  0  0  0  0  0  0  0  # atno 17320 bound_to 7965
  144.7731  140.5682  143.6656 LP  0  0  0  0  0  0  0  0  0  0  0  0  # atno 17321 bound_to 7965
  140.2300  144.4378  150.6304 LP  0  0  0  0  0  0  0  0  0  0  0  0  # atno 17342 bound_to 10162
  140.6361  143.2195  151.6391 LP  0  0  0  0  0  0  0  0  0  0  0  0  # atno 17343 bound_to 10162
  157.1244  131.0255  151.2995 LP  0  0  0  0  0  0  0  0  0  0  0  0  # atno 17370 bound_to 10713
  157.4601  130.7648  149.7228 LP  0  0  0  0  0  0  0  0  0  0  0  0  # atno 17371 bound_to 10713
  141.2218  133.7241  156.8719 LP  0  0  0  0  0  0  0  0  0  0  0  0  # atno 17394 bound_to 11000
  140.1758  134.9068  157.2889 LP  0  0  0  0  0  0  0  0  0  0  0  0  # atno 17395 bound_to 11000

$$$$
