AV-unprocessed.smi:23|AV-procd|sdf|173|dock1
  -GOLD-   2262015423D 1   1.00000     0.00000
 Structure written by MMmdl.
 53 56  0  0  0  0  0  0  0  0  1 V2000
  149.6807  144.5120  160.0529 C   0  0  0  0  0  0  0  0  0  0  0  0
  150.4492  144.7143  158.8724 O   0  0  0  0  0  0  0  0  0  0  0  0
  151.4513  143.7502  158.5319 C   0  0  1  0  0  0  0  0  0  0  0  0
  152.2456  144.4661  157.4207 C   0  0  0  0  0  0  0  0  0  0  0  0
  152.3493  143.4499  159.7591 C   0  0  0  0  0  0  0  0  0  0  0  0
  153.3879  142.3572  159.4501 C   0  0  0  0  0  0  0  0  0  0  0  0
  152.7182  141.0983  158.8747 C   0  0  0  0  0  0  0  0  0  0  0  0
  151.8757  141.4355  157.7264 N   0  0  0  0  0  0  0  0  0  0  0  0
  151.5054  140.4347  156.8883 C   0  0  0  0  0  0  0  0  0  0  0  0
  151.0787  140.7257  155.6302 N   0  0  0  0  0  0  0  0  0  0  0  0
  150.7205  139.7455  154.7957 C   0  0  0  0  0  0  0  0  0  0  0  0
  150.7139  138.4284  155.0092 N   0  0  0  0  0  0  0  0  0  0  0  0
  151.1375  138.1287  156.2706 C   0  0  0  0  0  0  0  0  0  0  0  0
  151.5411  139.0627  157.2666 C   0  0  0  0  0  0  0  0  0  0  0  0
  151.8758  138.3906  158.4366 N   0  0  0  0  0  0  0  0  0  0  0  0
  151.6874  137.1324  158.1463 C   0  0  0  0  0  0  0  0  0  0  0  0
  151.2751  136.8820  156.8568 N   0  0  0  0  0  0  0  0  0  0  0  0
  150.9592  135.6019  156.2924 C   0  0  0  0  0  0  0  0  0  0  0  0
  150.4674  135.4770  154.8467 C   0  0  0  0  0  0  0  0  0  0  0  0
  149.5107  134.3353  155.2559 C   0  0  0  0  0  0  0  0  0  0  0  0
  148.0774  134.4578  154.7156 C   0  0  0  0  0  0  0  0  0  0  0  0
  148.0128  134.1325  153.3417 O   0  0  0  0  0  0  0  0  0  0  0  0
  149.9794  132.8896  154.9774 C   0  0  0  0  0  0  0  0  0  0  0  0
  151.1993  132.5646  155.6122 O   0  0  0  0  0  0  0  0  0  0  0  0
  149.6910  134.8468  156.7028 C   0  0  0  0  0  0  0  0  0  0  0  0
  150.8394  142.4348  157.9885 C   0  0  0  0  0  0  0  0  0  0  0  0
  149.0357  145.3775  160.2033 H   0  0  0  0  0  0  0  0  0  0  0  0
  150.2954  144.4089  160.9456 H   0  0  0  0  0  0  0  0  0  0  0  0
  149.0291  143.6425  159.9677 H   0  0  0  0  0  0  0  0  0  0  0  0
  153.0540  143.8519  157.0251 H   0  0  0  0  0  0  0  0  0  0  0  0
  152.6865  145.3939  157.7869 H   0  0  0  0  0  0  0  0  0  0  0  0
  151.5980  144.7211  156.5810 H   0  0  0  0  0  0  0  0  0  0  0  0
  152.8482  144.3581  160.0984 H   0  0  0  0  0  0  0  0  0  0  0  0
  151.7466  143.1022  160.5968 H   0  0  0  0  0  0  0  0  0  0  0  0
  154.1277  142.7333  158.7435 H   0  0  0  0  0  0  0  0  0  0  0  0
  153.9385  142.1020  160.3558 H   0  0  0  0  0  0  0  0  0  0  0  0
  153.4880  140.3831  158.5816 H   0  0  0  0  0  0  0  0  0  0  0  0
  152.1064  140.6185  159.6399 H   0  0  0  0  0  0  0  0  0  0  0  0
  150.3957  140.0613  153.8153 H   0  0  0  0  0  0  0  0  0  0  0  0
  151.8508  136.3471  158.8701 H   0  0  0  0  0  0  0  0  0  0  0  0
  151.8428  134.9829  156.4526 H   0  0  0  0  0  0  0  0  0  0  0  0
  149.9359  136.3685  154.5092 H   0  0  0  0  0  0  0  0  0  0  0  0
  151.2401  135.1919  154.1320 H   0  0  0  0  0  0  0  0  0  0  0  0
  147.3913  133.8121  155.2652 H   0  0  0  0  0  0  0  0  0  0  0  0
  147.7027  135.4752  154.8328 H   0  0  0  0  0  0  0  0  0  0  0  0
  148.4706  134.7997  152.8533 H   0  0  0  0  0  0  0  0  0  0  0  0
  149.2312  132.1706  155.3128 H   0  0  0  0  0  0  0  0  0  0  0  0
  150.1152  132.7224  153.9085 H   0  0  0  0  0  0  0  0  0  0  0  0
  151.0086  132.0633  156.3903 H   0  0  0  0  0  0  0  0  0  0  0  0
  149.8546  134.0680  157.4485 H   0  0  0  0  0  0  0  0  0  0  0  0
  148.8944  135.5225  157.0188 H   0  0  0  0  0  0  0  0  0  0  0  0
  150.1622  141.9949  158.7207 H   0  0  0  0  0  0  0  0  0  0  0  0
  150.2411  142.6452  157.1025 H   0  0  0  0  0  0  0  0  0  0  0  0
  1  2  1  0  0  0  0
  1 27  1  0  0  0  0
  1 28  1  0  0  0  0
  1 29  1  0  0  0  0
  2  3  1  0  0  0  0
  3 26  1  0  0  0  0
  3  4  1  0  0  0  0
  3  5  1  0  0  0  0
  4 30  1  0  0  0  0
  4 31  1  0  0  0  0
  4 32  1  0  0  0  0
  5  6  1  0  0  0  0
  5 33  1  0  0  0  0
  5 34  1  0  0  0  0
  6  7  1  0  0  0  0
  6 35  1  0  0  0  0
  6 36  1  0  0  0  0
  7  8  1  0  0  0  0
  7 37  1  0  0  0  0
  7 38  1  0  0  0  0
  8  9  1  0  0  0  0
  8 26  1  0  0  0  0
  9 14  1  0  0  0  0
  9 10  2  0  0  0  0
 10 11  1  0  0  0  0
 11 12  2  0  0  0  0
 11 39  1  0  0  0  0
 12 13  1  0  0  0  0
 13 17  1  0  0  0  0
 13 14  2  0  0  0  0
 14 15  1  0  0  0  0
 15 16  2  0  0  0  0
 16 17  1  0  0  0  0
 16 40  1  0  0  0  0
 17 18  1  0  0  0  0
 18 25  1  0  0  0  0
 18 19  1  0  0  0  0
 18 41  1  0  0  0  0
 19 20  1  0  0  0  0
 19 42  1  0  0  0  0
 19 43  1  0  0  0  0
 20 21  1  0  0  0  0
 20 23  1  0  0  0  0
 20 25  1  0  0  0  0
 21 22  1  0  0  0  0
 21 44  1  0  0  0  0
 21 45  1  0  0  0  0
 22 46  1  0  0  0  0
 23 24  1  0  0  0  0
 23 47  1  0  0  0  0
 23 48  1  0  0  0  0
 24 49  1  0  0  0  0
 25 50  1  0  0  0  0
 25 51  1  0  0  0  0
 26 52  1  0  0  0  0
 26 53  1  0  0  0  0
M  END
> <s_m_source_file>
AV-unprocessed.smi

> <i_m_source_file_index>
23

> <i_lp_mmshare_version>
43012

> <i_f3d_flags>
0

> <s_epik_input>
W0NIM11PW0NAQF0xKFtDSDNdKVtDSDJdW0NIMl1bQ0gyXU4oW0NIMl0xKWMobltjSF1uMiljKGMyMyluW2NIXW4zW0NIXShbQ0gyXTQpW0NIMl1DNChbQ0gyXVtPSF0pW0NIMl1bT0hd

> <s_epik_cmdline>
J2VwaWtfcHl0aG9uJywgJy1waCcsICc3LjAnLCAnLXRuJywgJzgnLCAnLW1hJywgJzIwMCcsICctbWV0YWxfYmluZGluZycsICctaW1hZScsICc8aW5maWxlLm1hZT4nLCAnLW9tYWUnLCAnPG91dGZpbGUubWFlPic=

> <r_lp_tautomer_probability>
1

> <r_epik_Ionization_Penalty>
0.00233978

> <r_epik_Ionization_Penalty_Charging>
0

> <r_epik_Ionization_Penalty_Neutral>
0.00233978

> <r_epik_State_Penalty>
0.00146422

> <r_epik_Charging_Adjusted_Penalty>
0.00146422

> <i_epik_Tot_Q>
0

> <i_epik_Tot_abs_Q>
0

> <r_epik_Metal_State_Penalty>
-0

> <b_epik_Metal_Only>
0

> <s_lp_Force_Field>
OPLS_2005

> <r_lp_Energy>
49.0819

> <b_lp_Chiralities_Consistent>
1

> <s_lp_Variant>
AV-unprocessed.smi:23-1

> <Gold.Version>
5.8.1

> <Gold.Id.Protein>
6NUR|6NUR_protein|mol2

> <Gold.PLP.Fitness>
42.2796

> <Gold.PLP.PLP>
-38.3354

> <Gold.PLP.part.hbond>
-2.0000

> <Gold.PLP.part.metal>
0.0000

> <Gold.PLP.part.buried>
-4.6281

> <Gold.PLP.part.nonpolar>
-31.7838

> <Gold.PLP.part.repulsive>
0.3378

> <Gold.PLP.ligand.clash>
0.0000

> <Gold.PLP.ligand.torsion>
0.7462

> <Gold.PLP.Chemscore.Hbond>
1.0000

> <Gold.PLP.Chemscore.CHOScore>
0.5267

> <Gold.PLP.Chemscore.Metal>
0.0000

> <Gold.Chemscore.Hbonds>
donor molecule, donor type, donor heavy atom, donor atom, acceptor molecule, acceptor atom, score
      L1  H    22    46       P1  7948  1.00
      L1  C    11    39       P1  7957  0.42

> <Gold.PLP.Chemscore.Internal.Correction>
0.8565

> <Gold.Rescore>
     Score         DG    S(hbond)    S(metal)    S(lipo)     H(rot)  DE(clash)    DE(int)     intcor
      8.57     -11.98       0.98        0.00     101.58       3.38       0.24       3.17       ----

> <Gold.Chemscore.Fitness>
8.5682

> <Gold.Chemscore.DG>
-11.9844

> <Gold.Chemscore.ZeroCoef>
-5.4800

> <Gold.Chemscore.Hbond>
0.9826

> <Gold.Chemscore.Metal>
0.0000

> <Gold.Chemscore.Lipo>
101.5778

> <Gold.Chemscore.Internal_Hbond>
0.0000

> <Gold.Chemscore.DEClash>
0.2447

> <Gold.Chemscore.DEInternal>
3.1715

> <Gold.Chemscore.Rot>
3.3837

> <Gold.Chemscore.Internal.Correction>
   9.000000E+99

> <Gold.Chemscore.Hbonds>
donor molecule, donor type, donor heavy atom, donor atom, acceptor molecule, acceptor atom, score
      L1  H    22    46       P1  7948  0.45

> <Gold.Chemscore.Hbond.Weighted>
-3.2820

> <Gold.Chemscore.Metal.Weighted>
-0.0000

> <Gold.Chemscore.Lipo.Weighted>
-11.8846

> <Gold.Chemscore.Internal_Hbond.Weighted>
0.0000

> <Gold.Chemscore.DEClash.Weighted>
0.2447

> <Gold.Chemscore.DEInternal.Weighted>
3.1715

> <Gold.Chemscore.Rot.Weighted>
8.6622

> <Gold.Chemscore.Internal.Correction.Weighted>
   9.000000E+99

> <Gold.Protein.RotatedTorsions>
[ 6907 6896 6895 6894 ] final    5.02 input  -60.11 | X-H torsion
[ 7974 7965 7964 7962 ] final  171.70 input  175.53 | X-H torsion
[ 8008 7997 7996 7995 ] final  -24.75 input   59.86 | X-H torsion
[ 10167 10162 10161 10158 ] final  123.55 input  -65.29 | X-H torsion
[ 10718 10713 10712 10709 ] final   22.08 input   66.30 | X-H torsion
[ 10763 10752 10751 10750 ] final  -51.41 input  -60.55 | X-H torsion
[ 11005 11000 10999 10996 ] final -167.35 input  -57.11 | X-H torsion

> <Gold.Protein.ActiveResidues>
 VAL166  LYS551  ARG553  GLY616  TRP617  ASP618  TYR619  PRO620  LYS621  CYS622 
 ASP623  PHE694  ASN695  SER759  ASP760  ASP761  ALA762  ILE779  LEU786  VAL792 
 PHE793  MET794  SER795  GLU796  ALA797  LYS798  CYS799  TRP800  GLU811  SER814 

> <Gold.Protein.RotatedAtoms>
  151.6508  135.1002  160.0160 H   0  0  0  0  0  0  0  0  0  0  0  0  # atno 6907 bound_to 6896
  152.4002  133.6802  159.6318 H   0  0  0  0  0  0  0  0  0  0  0  0  # atno 6908 bound_to 6896
  150.7903  133.8722  159.3303 H   0  0  0  0  0  0  0  0  0  0  0  0  # atno 6909 bound_to 6896
  144.7287  139.9389  143.6428 H   0  0  0  0  0  0  0  0  0  0  0  0  # atno 7974 bound_to 7965
  154.4512  140.1945  156.0513 H   0  0  0  0  0  0  0  0  0  0  0  0  # atno 8008 bound_to 7997
  156.0652  140.3291  155.7482 H   0  0  0  0  0  0  0  0  0  0  0  0  # atno 8009 bound_to 7997
  155.5349  140.0581  157.2872 H   0  0  0  0  0  0  0  0  0  0  0  0  # atno 8010 bound_to 7997
  139.5793  144.6978  151.3571 H   0  0  0  0  0  0  0  0  0  0  0  0  # atno 10167 bound_to 10162
  157.1473  130.6659  149.6000 H   0  0  0  0  0  0  0  0  0  0  0  0  # atno 10718 bound_to 10713
  154.1261  135.6527  153.4912 H   0  0  0  0  0  0  0  0  0  0  0  0  # atno 10763 bound_to 10752
  153.0210  135.5282  154.7048 H   0  0  0  0  0  0  0  0  0  0  0  0  # atno 10764 bound_to 10752
  154.6269  135.2971  155.0232 H   0  0  0  0  0  0  0  0  0  0  0  0  # atno 10765 bound_to 10752
  140.5542  134.5398  157.5129 H   0  0  0  0  0  0  0  0  0  0  0  0  # atno 11005 bound_to 11000
  146.0800  139.3787  143.0470 LP  0  0  0  0  0  0  0  0  0  0  0  0  # atno 17320 bound_to 7965
  145.7854  140.9838  143.1077 LP  0  0  0  0  0  0  0  0  0  0  0  0  # atno 17321 bound_to 7965
  140.7072  143.7482  150.7503 LP  0  0  0  0  0  0  0  0  0  0  0  0  # atno 17342 bound_to 10162
  140.1010  143.4787  152.2425 LP  0  0  0  0  0  0  0  0  0  0  0  0  # atno 17343 bound_to 10162
  155.9777  130.4756  150.6609 LP  0  0  0  0  0  0  0  0  0  0  0  0  # atno 17370 bound_to 10713
  157.4252  131.0842  151.1092 LP  0  0  0  0  0  0  0  0  0  0  0  0  # atno 17371 bound_to 10713
  139.9440  134.7736  156.0608 LP  0  0  0  0  0  0  0  0  0  0  0  0  # atno 17394 bound_to 11000
  141.1153  133.6629  156.3079 LP  0  0  0  0  0  0  0  0  0  0  0  0  # atno 17395 bound_to 11000

$$$$
