AV-unprocessed.smi:395|AV-procd|sdf|2486|dock5
  -GOLD-   2262022423D 1   1.00000     0.00000
 Structure written by MMmdl.
 34 35  0  0  0  0  0  0  0  0  1 V2000
  147.4824  141.2401  154.0020 C   0  0  0  0  0  0  0  0  0  0  0  0
  148.3339  140.2299  154.2503 C   0  0  0  0  0  0  0  0  0  0  0  0
  149.8405  140.3331  154.4460 C   0  0  0  0  0  0  0  0  0  0  0  0
  150.2968  139.9453  155.7781 N   0  0  0  0  0  0  0  0  0  0  0  0
  151.5737  139.7174  156.1212 C   0  0  0  0  0  0  0  0  0  0  0  0
  152.5160  139.8481  155.3386 O   0  0  0  0  0  0  0  0  0  0  0  0
  151.8126  139.2747  157.5724 C   0  0  0  0  0  0  0  0  0  0  0  0
  152.2973  140.3729  158.4367 N   0  0  0  0  0  0  0  0  0  0  0  0
  153.4316  140.1506  159.2587 C   0  0  0  0  0  0  0  0  0  0  0  0
  154.0314  139.0745  159.2377 O   0  0  0  0  0  0  0  0  0  0  0  0
  153.8106  141.2669  160.1219 C   0  0  0  0  0  0  0  0  0  0  0  0
  154.9257  141.0706  160.9880 C   0  0  0  0  0  0  0  0  0  0  0  0
  155.8359  140.8896  161.6796 N   0  0  0  0  0  0  0  0  0  0  0  0
  153.1233  142.4274  160.0999 C   0  0  0  0  0  0  0  0  0  0  0  0
  152.0472  142.6363  159.2652 N   0  0  0  0  0  0  0  0  0  0  0  0
  151.2338  143.8144  159.3741 C   0  0  0  0  0  0  0  0  0  0  0  0
  151.6863  145.1192  158.7483 C   0  0  0  0  0  0  0  0  0  0  0  0
  151.7078  144.9547  160.2485 C   0  0  0  0  0  0  0  0  0  0  0  0
  151.5732  141.5901  158.4441 C   0  0  0  0  0  0  0  0  0  0  0  0
  150.5535  141.7248  157.7625 O   0  0  0  0  0  0  0  0  0  0  0  0
  147.8133  142.2647  153.9174 H   0  0  0  0  0  0  0  0  0  0  0  0
  146.4267  141.0489  153.8792 H   0  0  0  0  0  0  0  0  0  0  0  0
  147.9309  139.2300  154.3204 H   0  0  0  0  0  0  0  0  0  0  0  0
  150.3397  139.7336  153.6832 H   0  0  0  0  0  0  0  0  0  0  0  0
  150.1384  141.3668  154.2709 H   0  0  0  0  0  0  0  0  0  0  0  0
  149.5860  139.8184  156.4841 H   0  0  0  0  0  0  0  0  0  0  0  0
  150.8873  138.8386  157.9509 H   0  0  0  0  0  0  0  0  0  0  0  0
  152.5218  138.4448  157.5862 H   0  0  0  0  0  0  0  0  0  0  0  0
  153.4285  143.2279  160.7585 H   0  0  0  0  0  0  0  0  0  0  0  0
  150.1597  143.6369  159.3710 H   0  0  0  0  0  0  0  0  0  0  0  0
  152.6471  145.1401  158.2373 H   0  0  0  0  0  0  0  0  0  0  0  0
  150.9190  145.7624  158.3227 H   0  0  0  0  0  0  0  0  0  0  0  0
  150.9559  145.4909  160.8238 H   0  0  0  0  0  0  0  0  0  0  0  0
  152.6819  144.8648  160.7253 H   0  0  0  0  0  0  0  0  0  0  0  0
  1  2  2  0  0  0  0
  1 21  1  0  0  0  0
  1 22  1  0  0  0  0
  2  3  1  0  0  0  0
  2 23  1  0  0  0  0
  3  4  1  0  0  0  0
  3 24  1  0  0  0  0
  3 25  1  0  0  0  0
  4  5  1  0  0  0  0
  4 26  1  0  0  0  0
  5  6  2  0  0  0  0
  5  7  1  0  0  0  0
  7  8  1  0  0  0  0
  7 27  1  0  0  0  0
  7 28  1  0  0  0  0
  8 19  1  0  0  0  0
  8  9  1  0  0  0  0
  9 10  2  0  0  0  0
  9 11  1  0  0  0  0
 11 12  1  0  0  0  0
 11 14  2  0  0  0  0
 12 13  3  0  0  0  0
 14 15  1  0  0  0  0
 14 29  1  0  0  0  0
 15 16  1  0  0  0  0
 15 19  1  0  0  0  0
 16 18  1  0  0  0  0
 16 17  1  0  0  0  0
 16 30  1  0  0  0  0
 17 18  1  0  0  0  0
 17 31  1  0  0  0  0
 17 32  1  0  0  0  0
 18 33  1  0  0  0  0
 18 34  1  0  0  0  0
 19 20  2  0  0  0  0
M  END
> <s_m_source_file>
AV-unprocessed.smi

> <i_m_source_file_index>
395

> <i_lp_mmshare_version>
43012

> <i_f3d_flags>
0

> <s_epik_input>
W0NIMl09W0NIXVtDSDJdW05IXUMoPU8pW0NIMl1uMWMoPU8pYyhDI04pW2NIXW4oYzE9TylbQ0hdMltDSDJdW0NIMl0y

> <s_epik_cmdline>
J2VwaWtfcHl0aG9uJywgJy1waCcsICc3LjAnLCAnLXRuJywgJzgnLCAnLW1hJywgJzIwMCcsICctbWV0YWxfYmluZGluZycsICctaW1hZScsICc8aW5maWxlLm1hZT4nLCAnLW9tYWUnLCAnPG91dGZpbGUubWFlPic=

> <r_lp_tautomer_probability>
1

> <r_epik_Ionization_Penalty>
1.93471e-08

> <r_epik_Ionization_Penalty_Charging>
8.01404e-11

> <r_epik_Ionization_Penalty_Neutral>
1.9267e-08

> <r_epik_State_Penalty>
-0

> <r_epik_Charging_Adjusted_Penalty>
8.01404e-11

> <i_epik_Tot_Q>
0

> <i_epik_Tot_abs_Q>
0

> <r_epik_Metal_State_Penalty>
-0

> <b_epik_Metal_Only>
0

> <s_lp_Force_Field>
OPLS_2005

> <r_lp_Energy>
28.6083

> <b_lp_Chiralities_Consistent>
1

> <s_lp_Variant>
AV-unprocessed.smi:395-1

> <Gold.Version>
5.8.1

> <Gold.Id.Protein>
6NUR|6NUR_protein|mol2

> <Gold.PLP.Fitness>
48.1325

> <Gold.PLP.PLP>
-45.4667

> <Gold.PLP.part.hbond>
-2.9372

> <Gold.PLP.part.metal>
0.0000

> <Gold.PLP.part.buried>
-2.3802

> <Gold.PLP.part.nonpolar>
-39.7459

> <Gold.PLP.part.repulsive>
0.1357

> <Gold.PLP.ligand.clash>
0.0000

> <Gold.PLP.ligand.torsion>
0.6728

> <Gold.PLP.Chemscore.Hbond>
1.2649

> <Gold.PLP.Chemscore.CHOScore>
0.0000

> <Gold.PLP.Chemscore.Metal>
0.0000

> <Gold.Chemscore.Hbonds>
donor molecule, donor type, donor heavy atom, donor atom, acceptor molecule, acceptor atom, score
      P1  H  7989  7998       L1     6  0.26
      P1  H  7997  8009       L1     6  1.00

> <Gold.PLP.Chemscore.Internal.Correction>
0.2167

> <Gold.Rescore>
     Score         DG    S(hbond)    S(metal)    S(lipo)     H(rot)  DE(clash)    DE(int)     intcor
     10.10     -13.54       1.12        0.00      82.50       2.09       0.24       3.20       ----

> <Gold.Chemscore.Fitness>
10.1018

> <Gold.Chemscore.DG>
-13.5402

> <Gold.Chemscore.ZeroCoef>
-5.4800

> <Gold.Chemscore.Hbond>
1.1241

> <Gold.Chemscore.Metal>
0.0000

> <Gold.Chemscore.Lipo>
82.4996

> <Gold.Chemscore.Internal_Hbond>
0.0000

> <Gold.Chemscore.DEClash>
0.2402

> <Gold.Chemscore.DEInternal>
3.1981

> <Gold.Chemscore.Rot>
2.0886

> <Gold.Chemscore.Internal.Correction>
   9.000000E+99

> <Gold.Chemscore.Hbonds>
donor molecule, donor type, donor heavy atom, donor atom, acceptor molecule, acceptor atom, score
      P1  H  7989  7998       L1     6  0.17
      P1  H  7997  8009       L1     6  0.93

> <Gold.Chemscore.Hbond.Weighted>
-3.7546

> <Gold.Chemscore.Metal.Weighted>
-0.0000

> <Gold.Chemscore.Lipo.Weighted>
-9.6525

> <Gold.Chemscore.Internal_Hbond.Weighted>
0.0000

> <Gold.Chemscore.DEClash.Weighted>
0.2402

> <Gold.Chemscore.DEInternal.Weighted>
3.1981

> <Gold.Chemscore.Rot.Weighted>
5.3469

> <Gold.Chemscore.Internal.Correction.Weighted>
   9.000000E+99

> <Gold.Protein.RotatedTorsions>
[ 6907 6896 6895 6894 ] final  161.92 input  -60.11 | X-H torsion
[ 7974 7965 7964 7962 ] final   85.63 input  175.53 | X-H torsion
[ 8008 7997 7996 7995 ] final -141.84 input   59.86 | X-H torsion
[ 10167 10162 10161 10158 ] final  162.22 input  -65.29 | X-H torsion
[ 10718 10713 10712 10709 ] final  -41.63 input   66.30 | X-H torsion
[ 10763 10752 10751 10750 ] final   -6.97 input  -60.55 | X-H torsion
[ 11005 11000 10999 10996 ] final -128.33 input  -57.11 | X-H torsion

> <Gold.Protein.ActiveResidues>
 VAL166  LYS551  ARG553  GLY616  TRP617  ASP618  TYR619  PRO620  LYS621  CYS622 
 ASP623  PHE694  ASN695  SER759  ASP760  ASP761  ALA762  ILE779  LEU786  VAL792 
 PHE793  MET794  SER795  GLU796  ALA797  LYS798  CYS799  TRP800  GLU811  SER814 

> <Gold.Protein.RotatedAtoms>
  151.9483  133.3658  159.3990 H   0  0  0  0  0  0  0  0  0  0  0  0  # atno 6907 bound_to 6896
  150.6985  134.4367  159.5282 H   0  0  0  0  0  0  0  0  0  0  0  0  # atno 6908 bound_to 6896
  152.2036  134.8566  160.0556 H   0  0  0  0  0  0  0  0  0  0  0  0  # atno 6909 bound_to 6896
  145.5829  139.2327  143.2342 H   0  0  0  0  0  0  0  0  0  0  0  0  # atno 7974 bound_to 7965
  155.4845  140.0563  157.2962 H   0  0  0  0  0  0  0  0  0  0  0  0  # atno 8008 bound_to 7997
  154.4647  140.2013  156.0101 H   0  0  0  0  0  0  0  0  0  0  0  0  # atno 8009 bound_to 7997
  156.0954  140.3227  155.7874 H   0  0  0  0  0  0  0  0  0  0  0  0  # atno 8010 bound_to 7997
  139.4858  144.4459  151.8892 H   0  0  0  0  0  0  0  0  0  0  0  0  # atno 10167 bound_to 10162
  156.2683  130.4204  149.8466 H   0  0  0  0  0  0  0  0  0  0  0  0  # atno 10718 bound_to 10713
  153.4197  135.7009  153.6302 H   0  0  0  0  0  0  0  0  0  0  0  0  # atno 10763 bound_to 10752
  153.4762  135.3704  155.2418 H   0  0  0  0  0  0  0  0  0  0  0  0  # atno 10764 bound_to 10752
  154.8721  135.4055  154.3564 H   0  0  0  0  0  0  0  0  0  0  0  0  # atno 10765 bound_to 10752
  140.9525  134.1046  157.4048 H   0  0  0  0  0  0  0  0  0  0  0  0  # atno 11005 bound_to 11000
  146.1703  140.6656  142.9236 LP  0  0  0  0  0  0  0  0  0  0  0  0  # atno 17320 bound_to 7965
  144.7386  140.4878  143.6886 LP  0  0  0  0  0  0  0  0  0  0  0  0  # atno 17321 bound_to 7965
  140.3913  144.2611  150.5899 LP  0  0  0  0  0  0  0  0  0  0  0  0  # atno 17342 bound_to 10162
  140.5143  143.2282  151.8487 LP  0  0  0  0  0  0  0  0  0  0  0  0  # atno 17343 bound_to 10162
  156.5957  130.8525  151.3419 LP  0  0  0  0  0  0  0  0  0  0  0  0  # atno 17370 bound_to 10713
  157.7275  130.9643  150.1701 LP  0  0  0  0  0  0  0  0  0  0  0  0  # atno 17371 bound_to 10713
  139.8852  135.0070  156.6417 LP  0  0  0  0  0  0  0  0  0  0  0  0  # atno 17394 bound_to 11000
  140.7583  133.8839  155.8398 LP  0  0  0  0  0  0  0  0  0  0  0  0  # atno 17395 bound_to 11000

$$$$
