#       Name:                AV-unprocessed.smi:37
#       Creating user name   scv26
#       Creation time:       Thu Mar 26 16:11:17 2020


#       File generated by GOLD software.
#

@<TRIPOS>MOLECULE
AV-unprocessed.smi:37
    54    55     1
SMALL
NO_CHARGES


@<TRIPOS>ATOM
      1 ****        -3.3408   1.5092  -1.6120 C.3            1 S1                 0.0000
      2 ****        -3.7136   0.8673  -0.2686 C.3            1 S1                 0.0000
      3 ****        -3.3141  -0.6050  -0.2002 C.2            1 S1                 0.0000
      4 ****        -4.1558  -1.4949  -0.0774 O.2            1 S1                 0.0000
      5 ****        -1.9876  -0.7815  -0.2762 O.3            1 S1                 0.0000
      6 ****        -1.4417  -2.0888  -0.2217 C.3            1 S1                 0.0000
      7 ****         0.0948  -2.0320  -0.1661 C.3            1 S1                 0.0000
      8 ****         0.6012  -1.3881  -1.3324 O.3            1 S1                 0.0000
      9 ****         1.8265  -0.8152  -0.9990 C.3            1 S1                 0.0000
     10 ****         2.2695   0.1403  -2.0939 N.am           1 S1                 0.0000
     11 ****         2.9345   1.3281  -1.8066 C.2            1 S1                 0.0000
     12 ****         3.3924   2.1733  -2.7602 C.2            1 S1                 0.0000
     13 ****         4.0229   3.3034  -2.3979 F              1 S1                 0.0000
     14 ****         3.2337   1.8552  -4.1749 C.2            1 S1                 0.0000
     15 ****         3.5999   2.5626  -5.1112 O.2            1 S1                 0.0000
     16 ****         2.6243   0.6224  -4.4206 N.am           1 S1                 0.0000
     17 ****         2.1604  -0.2636  -3.4463 C.2            1 S1                 0.0000
     18 ****         1.6903  -1.3474  -3.7892 O.2            1 S1                 0.0000
     19 ****         1.5135  -0.1602   0.3547 C.3            1 S1                 0.0000
     20 ****         0.3280   1.4426   0.1425 Br             1 S1                 0.0000
     21 ****         0.7387  -1.2929   1.0273 C.3            1 S1                 0.0000
     22 ****        -0.1893  -0.8426   2.0096 O.3            1 S1                 0.0000
     23 ****         0.2207  -0.5697   3.2598 C.2            1 S1                 0.0000
     24 ****         1.3780  -0.6650   3.6727 O.2            1 S1                 0.0000
     25 ****        -0.9333  -0.1013   4.1483 C.3            1 S1                 0.0000
     26 ****        -0.5068   0.2247   5.5874 C.3            1 S1                 0.0000
     27 ****         2.5242   0.3416  -5.3853 H              1 S1                 0.0000
     28 ****        -3.6700   2.5477  -1.6446 H              1 S1                 0.0000
     29 ****        -3.8124   0.9865  -2.4448 H              1 S1                 0.0000
     30 ****        -2.2625   1.5007  -1.7759 H              1 S1                 0.0000
     31 ****        -3.2274   1.4017   0.5480 H              1 S1                 0.0000
     32 ****        -4.7884   0.9489  -0.1055 H              1 S1                 0.0000
     33 ****        -1.8224  -2.6140   0.6556 H              1 S1                 0.0000
     34 ****        -1.7621  -2.6509  -1.0996 H              1 S1                 0.0000
     35 ****         0.4711  -3.0558  -0.1692 H              1 S1                 0.0000
     36 ****         2.6144  -1.5698  -0.9441 H              1 S1                 0.0000
     37 ****         3.1186   1.6075  -0.7807 H              1 S1                 0.0000
     38 ****         2.4159   0.1267   0.8946 H              1 S1                 0.0000
     39 ****         1.4500  -1.9834   1.4840 H              1 S1                 0.0000
     40 ****        -1.3840   0.7797   3.6909 H              1 S1                 0.0000
     41 ****        -1.6995  -0.8769   4.1587 H              1 S1                 0.0000
     42 ****        -1.3622   0.5603   6.1737 H              1 S1                 0.0000
     43 ****         0.2408   1.0185   5.6109 H              1 S1                 0.0000
     44 ****        -0.0883  -0.6500   6.0865 H              1 S1                 0.0000
     45 ****        -5.1264  -1.2607  -0.0201 LP             1 S1                 0.0000
     46 ****        -3.8691  -2.4520  -0.0350 LP             1 S1                 0.0000
     47 ****        -0.0360  -0.6789  -1.6342 LP             1 S1                 0.0000
     48 ****         0.7258  -2.0577  -2.0646 LP             1 S1                 0.0000
     49 ****         4.0486   3.4379  -4.9309 LP             1 S1                 0.0000
     50 ****         3.4490   2.2628  -6.0532 LP             1 S1                 0.0000
     51 ****         1.3626  -1.9915  -3.0980 LP             1 S1                 0.0000
     52 ****         1.6358  -1.5844  -4.7592 LP             1 S1                 0.0000
     53 ****         2.1052  -0.9680   3.0568 LP             1 S1                 0.0000
     54 ****         1.5897  -0.4393   4.6236 LP             1 S1                 0.0000
@<TRIPOS>BOND
    1    1    2 1     
    2    1   28 1     
    3    1   29 1     
    4    1   30 1     
    5    2    3 1     
    6    2   31 1     
    7    2   32 1     
    8    3    4 2     
    9    3    5 1     
   10    5    6 1     
   11    6    7 1     
   12    6   33 1     
   13    6   34 1     
   14    7   21 1     
   15    7    8 1     
   16    7   35 1     
   17    8    9 1     
   18    9   10 1     
   19    9   19 1     
   20    9   36 1     
   21   10   17 1     
   22   10   11 1     
   23   11   12 2     
   24   11   37 1     
   25   12   13 1     
   26   12   14 1     
   27   14   15 2     
   28   14   16 1     
   29   16   27 1     
   30   16   17 1     
   31   17   18 2     
   32   19   20 1     
   33   19   21 1     
   34   19   38 1     
   35   21   22 1     
   36   21   39 1     
   37   22   23 1     
   38   23   24 2     
   39   23   25 1     
   40   25   26 1     
   41   25   40 1     
   42   25   41 1     
   43   26   42 1     
   44   26   43 1     
   45   26   44 1     
   46    4   45 1     
   47    4   46 1     
   48    8   47 1     
   49    8   48 1     
   50   15   49 1     
   51   15   50 1     
   52   18   51 1     
   53   18   52 1     
   54   24   53 1     
   55   24   54 1     
@<TRIPOS>SUBSTRUCTURE
      1 S1             1
@<TRIPOS>SET
LONE_PAIRS      STATIC     ATOMS    <user>   **** ""
10 45 46 47 48 49 50 51 52 53 54
DONOR_HYDROGENS      STATIC     ATOMS    <user>   **** ""
1 27
ATOM$BLUE        STATIC     ATOMS    COLORGROUP SYSTEM
10 45 46 47 48 49 50 51 52 53 54
ATOM$RED        STATIC     ATOMS    COLORGROUP SYSTEM
1 27
