AV-unprocessed.smi:1672|AV-procd|sdf|6705|dock1
  -GOLD-   22720 7443D 1   1.00000     0.00000
 Structure written by MMmdl.
 49 51  0  0  0  0  0  0  0  0  3 V2000
  148.4063  130.1920  154.6721 C   0  0  0  0  0  0  0  0  0  0  0  0
  147.7711  130.6923  153.3674 C   0  0  2  0  0  0  0  0  0  0  0  0
  147.5349  132.2118  153.3956 C   0  0  0  0  0  0  0  0  0  0  0  0
  146.8691  132.6975  152.0976 C   0  0  0  0  0  0  0  0  0  0  0  0
  145.5892  131.9810  151.8515 N   0  3  1  0  0  0  0  0  0  0  0  0
  144.8435  132.5032  150.6779 C   0  0  0  0  0  0  0  0  0  0  0  0
  144.2851  133.9251  150.9102 C   0  0  2  0  0  0  0  0  0  0  0  0
  145.0479  134.8489  150.1608 O   0  0  0  0  0  0  0  0  0  0  0  0
  144.3436  134.3739  152.3846 C   0  0  0  0  0  0  0  0  0  0  0  0
  143.9568  135.7808  152.5753 N   0  0  0  0  0  0  0  0  0  0  0  0
  144.6765  136.9341  152.4383 C   0  0  0  0  0  0  0  0  0  0  0  0
  146.1142  137.0692  152.0491 C   0  0  0  0  0  0  0  0  0  0  0  0
  146.2768  137.6492  150.7734 O   0  0  0  0  0  0  0  0  0  0  0  0
  143.8367  137.9679  152.7303 N   0  3  0  0  0  0  0  0  0  0  0  0
  142.5721  137.4767  153.0537 C   0  0  0  0  0  0  0  0  0  0  0  0
  141.4026  138.1375  153.4163 C   0  0  0  0  0  0  0  0  0  0  0  0
  140.2762  137.3309  153.6806 C   0  0  0  0  0  0  0  0  0  0  0  0
  140.3396  135.9260  153.5804 C   0  0  0  0  0  0  0  0  0  0  0  0
  141.5316  135.2675  153.2128 C   0  0  0  0  0  0  0  0  0  0  0  0
  142.6408  136.0725  152.9536 C   0  0  0  0  0  0  0  0  0  0  0  0
  145.7955  130.5116  151.7807 C   0  0  0  0  0  0  0  0  0  0  0  0
  146.4414  129.9790  153.0711 C   0  0  0  0  0  0  0  0  0  0  0  0
  147.7597  130.3849  155.5288 H   0  0  0  0  0  0  0  0  0  0  0  0
  149.3607  130.6853  154.8580 H   0  0  0  0  0  0  0  0  0  0  0  0
  148.5933  129.1185  154.6311 H   0  0  0  0  0  0  0  0  0  0  0  0
  148.4644  130.4707  152.5546 H   0  0  0  0  0  0  0  0  0  0  0  0
  146.9059  132.4741  154.2477 H   0  0  0  0  0  0  0  0  0  0  0  0
  148.4816  132.7338  153.5391 H   0  0  0  0  0  0  0  0  0  0  0  0
  146.6984  133.7709  152.1690 H   0  0  0  0  0  0  0  0  0  0  0  0
  147.5425  132.5433  151.2530 H   0  0  0  0  0  0  0  0  0  0  0  0
  145.5049  132.4754  149.8113 H   0  0  0  0  0  0  0  0  0  0  0  0
  144.0091  131.8419  150.4389 H   0  0  0  0  0  0  0  0  0  0  0  0
  143.2530  133.9927  150.5695 H   0  0  0  0  0  0  0  0  0  0  0  0
  145.2871  134.4557  149.3358 H   0  0  0  0  0  0  0  0  0  0  0  0
  143.6877  133.7571  152.9993 H   0  0  0  0  0  0  0  0  0  0  0  0
  145.3469  134.2391  152.7915 H   0  0  0  0  0  0  0  0  0  0  0  0
  146.6467  137.6840  152.7738 H   0  0  0  0  0  0  0  0  0  0  0  0
  146.5793  136.0834  152.0559 H   0  0  0  0  0  0  0  0  0  0  0  0
  145.5387  138.2152  150.6039 H   0  0  0  0  0  0  0  0  0  0  0  0
  141.3508  139.2139  153.4918 H   0  0  0  0  0  0  0  0  0  0  0  0
  139.3445  137.7992  153.9640 H   0  0  0  0  0  0  0  0  0  0  0  0
  139.4549  135.3414  153.7884 H   0  0  0  0  0  0  0  0  0  0  0  0
  141.5676  134.1907  153.1368 H   0  0  0  0  0  0  0  0  0  0  0  0
  144.8377  130.0117  151.6307 H   0  0  0  0  0  0  0  0  0  0  0  0
  146.4187  130.2701  150.9180 H   0  0  0  0  0  0  0  0  0  0  0  0
  146.6057  128.9045  152.9818 H   0  0  0  0  0  0  0  0  0  0  0  0
  145.7527  130.1169  153.9059 H   0  0  0  0  0  0  0  0  0  0  0  0
  145.0004  132.1385  152.6567 H   0  0  0  0  0  0  0  0  0  0  0  0
  144.1158  138.9407  152.7094 H   0  0  0  0  0  0  0  0  0  0  0  0
  1  2  1  0  0  0  0
  1 23  1  0  0  0  0
  1 24  1  0  0  0  0
  1 25  1  0  0  0  0
  2 22  1  0  0  0  0
  2  3  1  0  0  0  0
  2 26  1  0  0  0  0
  3  4  1  0  0  0  0
  3 27  1  0  0  0  0
  3 28  1  0  0  0  0
  4  5  1  0  0  0  0
  4 29  1  0  0  0  0
  4 30  1  0  0  0  0
  5  6  1  0  0  0  0
  5 21  1  0  0  0  0
  5 48  1  0  0  0  0
  6  7  1  0  0  0  0
  6 31  1  0  0  0  0
  6 32  1  0  0  0  0
  7  8  1  0  0  0  0
  7  9  1  0  0  0  0
  7 33  1  0  0  0  0
  8 34  1  0  0  0  0
  9 10  1  0  0  0  0
  9 35  1  0  0  0  0
  9 36  1  0  0  0  0
 10 20  1  0  0  0  0
 10 11  1  0  0  0  0
 11 12  1  0  0  0  0
 11 14  2  0  0  0  0
 12 13  1  0  0  0  0
 12 37  1  0  0  0  0
 12 38  1  0  0  0  0
 13 39  1  0  0  0  0
 14 15  1  0  0  0  0
 14 49  1  0  0  0  0
 15 20  2  0  0  0  0
 15 16  1  0  0  0  0
 16 17  2  0  0  0  0
 16 40  1  0  0  0  0
 17 18  1  0  0  0  0
 17 41  1  0  0  0  0
 18 19  2  0  0  0  0
 18 42  1  0  0  0  0
 19 20  1  0  0  0  0
 19 43  1  0  0  0  0
 21 22  1  0  0  0  0
 21 44  1  0  0  0  0
 21 45  1  0  0  0  0
 22 46  1  0  0  0  0
 22 47  1  0  0  0  0
M  CHG  1   5   1
M  CHG  1  14   1
M  END
> <s_m_source_file>
AV-unprocessed.smi

> <i_m_source_file_index>
1672

> <i_lp_mmshare_version>
43012

> <i_f3d_flags>
0

> <s_epik_input>
W0NIM11bQ0hdMVtDSDJdW0NIMl1OKFtDSDJdW0NIMl0xKVtDSDJdW0NASF0oW09IXSlbQ0gyXW4oYyhuMilbQ0gyXVtPSF0pYyhjMjMpW2NIXVtjSF1bY0hdW2NIXTM=

> <s_epik_cmdline>
J2VwaWtfcHl0aG9uJywgJy1waCcsICc3LjAnLCAnLXRuJywgJzgnLCAnLW1hJywgJzIwMCcsICctbWV0YWxfYmluZGluZycsICctaW1hZScsICc8aW5maWxlLm1hZT4nLCAnLW9tYWUnLCAnPG91dGZpbGUubWFlPic=

> <r_epik_Ionization_Penalty>
1.51642

> <r_epik_Ionization_Penalty_Charging>
1.51557

> <r_epik_Ionization_Penalty_Neutral>
0.000856474

> <r_epik_State_Penalty>
1.6048

> <r_epik_Charging_Adjusted_Penalty>
3.12037

> <i_epik_Tot_Q>
2

> <i_epik_Tot_abs_Q>
2

> <r_epik_Metal_State_Penalty>
5.65673

> <b_epik_Metal_Only>
0

> <s_lp_Force_Field>
OPLS_2005

> <r_lp_Energy>
31.4563

> <b_lp_Chiralities_Consistent>
1

> <s_lp_Variant>
AV-unprocessed.smi:1672-5

> <Gold.Version>
5.8.1

> <Gold.Id.Protein>
6NUR|6NUR_protein|mol2

> <Gold.PLP.Fitness>
54.6667

> <Gold.PLP.PLP>
-42.9065

> <Gold.PLP.part.hbond>
-4.8482

> <Gold.PLP.part.metal>
0.0000

> <Gold.PLP.part.buried>
-3.0384

> <Gold.PLP.part.nonpolar>
-34.2376

> <Gold.PLP.part.repulsive>
0.0335

> <Gold.PLP.ligand.clash>
0.0057

> <Gold.PLP.ligand.torsion>
1.1752

> <Gold.PLP.Chemscore.Hbond>
4.6896

> <Gold.PLP.Chemscore.CHOScore>
0.0000

> <Gold.PLP.Chemscore.Metal>
0.0000

> <Gold.Chemscore.Hbonds>
donor molecule, donor type, donor heavy atom, donor atom, acceptor molecule, acceptor atom, score
      L1  H     8    34       P1  7921  0.86
      L1  H    13    39       P1 10171  1.00
      L1  H    14    49       P1 10175  1.82
      P1  H  7954  7966       L1    13  0.86

> <Gold.PLP.Chemscore.Internal.Correction>
0.0475

> <Gold.Rescore>
     Score         DG    S(hbond)    S(metal)    S(lipo)     H(rot)  DE(clash)    DE(int)     intcor
     18.98     -20.72       3.51        0.00      94.78       2.96       0.38       1.36       ----

> <Gold.Chemscore.Fitness>
18.9797

> <Gold.Chemscore.DG>
-20.7205

> <Gold.Chemscore.ZeroCoef>
-5.4800

> <Gold.Chemscore.Hbond>
3.5083

> <Gold.Chemscore.Metal>
0.0000

> <Gold.Chemscore.Lipo>
94.7753

> <Gold.Chemscore.Internal_Hbond>
0.0000

> <Gold.Chemscore.DEClash>
0.3843

> <Gold.Chemscore.DEInternal>
1.3565

> <Gold.Chemscore.Rot>
2.9555

> <Gold.Chemscore.Internal.Correction>
   9.000000E+99

> <Gold.Chemscore.Hbonds>
donor molecule, donor type, donor heavy atom, donor atom, acceptor molecule, acceptor atom, score
      L1  H     8    34       P1  7921  0.83
      L1  H    13    39       P1 10171  0.97
      L1  H    14    49       P1 10175  0.88
      P1  H  7954  7966       L1    13  0.80

> <Gold.Chemscore.Hbond.Weighted>
-11.7178

> <Gold.Chemscore.Metal.Weighted>
-0.0000

> <Gold.Chemscore.Lipo.Weighted>
-11.0887

> <Gold.Chemscore.Internal_Hbond.Weighted>
0.0000

> <Gold.Chemscore.DEClash.Weighted>
0.3843

> <Gold.Chemscore.DEInternal.Weighted>
1.3565

> <Gold.Chemscore.Rot.Weighted>
7.5660

> <Gold.Chemscore.Internal.Correction.Weighted>
   9.000000E+99

> <Gold.Protein.RotatedTorsions>
[ 6907 6896 6895 6894 ] final    8.53 input  -60.11 | X-H torsion
[ 7974 7965 7964 7962 ] final -126.59 input  175.53 | X-H torsion
[ 8008 7997 7996 7995 ] final  -34.99 input   59.86 | X-H torsion
[ 10167 10162 10161 10158 ] final  176.40 input  -65.29 | X-H torsion
[ 10718 10713 10712 10709 ] final  -21.14 input   66.30 | X-H torsion
[ 10763 10752 10751 10750 ] final  148.82 input  -60.55 | X-H torsion
[ 11005 11000 10999 10996 ] final  120.69 input  -57.11 | X-H torsion

> <Gold.Protein.ActiveResidues>
 VAL166  LYS551  ARG553  GLY616  TRP617  ASP618  TYR619  PRO620  LYS621  CYS622 
 ASP623  PHE694  ASN695  SER759  ASP760  ASP761  ALA762  ILE779  LEU786  VAL792 
 PHE793  MET794  SER795  GLU796  ALA797  LYS798  CYS799  TRP800  GLU811  SER814 

> <Gold.Protein.RotatedAtoms>
  151.7076  135.0919  160.0261 H   0  0  0  0  0  0  0  0  0  0  0  0  # atno 6907 bound_to 6896
  152.3682  133.6380  159.6075 H   0  0  0  0  0  0  0  0  0  0  0  0  # atno 6908 bound_to 6896
  150.7653  133.9230  159.3445 H   0  0  0  0  0  0  0  0  0  0  0  0  # atno 6909 bound_to 6896
  144.9857  140.7683  143.4585 H   0  0  0  0  0  0  0  0  0  0  0  0  # atno 7974 bound_to 7965
  154.4106  140.1669  156.2139 H   0  0  0  0  0  0  0  0  0  0  0  0  # atno 8008 bound_to 7997
  155.9421  140.3407  155.6313 H   0  0  0  0  0  0  0  0  0  0  0  0  # atno 8009 bound_to 7997
  155.6976  140.0741  157.2414 H   0  0  0  0  0  0  0  0  0  0  0  0  # atno 8010 bound_to 7997
  139.5213  144.2920  152.0455 H   0  0  0  0  0  0  0  0  0  0  0  0  # atno 10167 bound_to 10162
  156.5223  130.4635  149.6590 H   0  0  0  0  0  0  0  0  0  0  0  0  # atno 10718 bound_to 10713
  154.0611  135.2874  155.3324 H   0  0  0  0  0  0  0  0  0  0  0  0  # atno 10763 bound_to 10752
  154.6808  135.5264  153.8263 H   0  0  0  0  0  0  0  0  0  0  0  0  # atno 10764 bound_to 10752
  153.0522  135.6581  154.0799 H   0  0  0  0  0  0  0  0  0  0  0  0  # atno 10765 bound_to 10752
  139.9195  134.9636  156.7846 H   0  0  0  0  0  0  0  0  0  0  0  0  # atno 11005 bound_to 11000
  145.2357  139.2095  143.5019 LP  0  0  0  0  0  0  0  0  0  0  0  0  # atno 17320 bound_to 7965
  146.3419  140.2243  142.8592 LP  0  0  0  0  0  0  0  0  0  0  0  0  # atno 17321 bound_to 7965
  140.2371  144.4308  150.6275 LP  0  0  0  0  0  0  0  0  0  0  0  0  # atno 17342 bound_to 10162
  140.6316  143.2188  151.6483 LP  0  0  0  0  0  0  0  0  0  0  0  0  # atno 17343 bound_to 10162
  156.3138  130.7243  151.2141 LP  0  0  0  0  0  0  0  0  0  0  0  0  # atno 17370 bound_to 10713
  157.7435  131.0474  150.4942 LP  0  0  0  0  0  0  0  0  0  0  0  0  # atno 17371 bound_to 10713
  140.6517  133.9726  155.7758 LP  0  0  0  0  0  0  0  0  0  0  0  0  # atno 17394 bound_to 11000
  141.0704  134.0214  157.3535 LP  0  0  0  0  0  0  0  0  0  0  0  0  # atno 17395 bound_to 11000

$$$$
