AV-unprocessed.smi:3028|AV-procd|sdf|11521|dock10
  -GOLD-   2272016463D 1   1.00000     0.00000
 Structure written by MMmdl.
 47 48  0  0  0  0  0  0  0  0  1 V2000
  150.9633  142.5627  156.7453 C   0  0  0  0  0  0  0  0  0  0  0  0
  150.2628  141.5699  155.8634 C   0  0  0  0  0  0  0  0  0  0  0  0
  150.7054  140.2714  155.4832 C   0  0  0  0  0  0  0  0  0  0  0  0
  149.8504  139.6483  154.6894 N   0  0  0  0  0  0  0  0  0  0  0  0
  148.8319  140.5218  154.5332 N   0  0  0  0  0  0  0  0  0  0  0  0
  147.6904  140.1642  153.6995 C   0  0  2  0  0  0  0  0  0  0  0  0
  146.7873  141.3980  153.5101 C   0  0  0  0  0  0  0  0  0  0  0  0
  146.9222  138.9378  154.2629 C   0  0  2  0  0  0  0  0  0  0  0  0
  147.8192  137.6926  154.4397 C   0  0  0  0  0  0  0  0  0  0  0  0
  145.8331  138.6235  153.3411 N   0  0  0  0  0  0  0  0  0  0  0  0
  146.2664  137.8854  152.1455 C   0  0  0  0  0  0  0  0  0  0  0  0
  145.5631  136.5270  151.9948 C   0  0  0  0  0  0  0  0  0  0  0  0
  144.3704  136.4099  152.2740 O   0  0  0  0  0  0  0  0  0  0  0  0
  146.2664  135.4729  151.5473 N   0  0  0  0  0  0  0  0  0  0  0  0
  145.7911  134.1074  151.3345 C   0  0  0  0  0  0  0  0  0  0  0  0
  146.9306  133.2452  150.7704 C   0  0  0  0  0  0  0  0  0  0  0  0
  146.4183  131.8457  150.3922 C   0  0  0  0  0  0  0  0  0  0  0  0
  145.3436  131.9543  149.4649 O   0  0  0  0  0  0  0  0  0  0  0  0
  144.2189  132.6459  149.9975 C   0  0  0  0  0  0  0  0  0  0  0  0
  144.6087  134.0903  150.3509 C   0  0  0  0  0  0  0  0  0  0  0  0
  149.0573  141.6907  155.2323 C   0  0  0  0  0  0  0  0  0  0  0  0
  151.8238  142.1217  157.2490 H   0  0  0  0  0  0  0  0  0  0  0  0
  150.3019  142.9504  157.5204 H   0  0  0  0  0  0  0  0  0  0  0  0
  151.3281  143.4176  156.1756 H   0  0  0  0  0  0  0  0  0  0  0  0
  151.6195  139.7661  155.7587 H   0  0  0  0  0  0  0  0  0  0  0  0
  148.0820  139.8927  152.7167 H   0  0  0  0  0  0  0  0  0  0  0  0
  145.9849  141.2027  152.7986 H   0  0  0  0  0  0  0  0  0  0  0  0
  147.3589  142.2438  153.1269 H   0  0  0  0  0  0  0  0  0  0  0  0
  146.3280  141.7054  154.4500 H   0  0  0  0  0  0  0  0  0  0  0  0
  146.5081  139.2143  155.2339 H   0  0  0  0  0  0  0  0  0  0  0  0
  148.6368  137.8803  155.1355 H   0  0  0  0  0  0  0  0  0  0  0  0
  148.2596  137.3852  153.4906 H   0  0  0  0  0  0  0  0  0  0  0  0
  147.2682  136.8429  154.8408 H   0  0  0  0  0  0  0  0  0  0  0  0
  145.3290  139.4660  153.1032 H   0  0  0  0  0  0  0  0  0  0  0  0
  146.0613  138.4755  151.2532 H   0  0  0  0  0  0  0  0  0  0  0  0
  147.3431  137.7212  152.1962 H   0  0  0  0  0  0  0  0  0  0  0  0
  147.2387  135.6385  151.3301 H   0  0  0  0  0  0  0  0  0  0  0  0
  145.4758  133.6610  152.2783 H   0  0  0  0  0  0  0  0  0  0  0  0
  147.3547  133.7212  149.8850 H   0  0  0  0  0  0  0  0  0  0  0  0
  147.7387  133.1632  151.4980 H   0  0  0  0  0  0  0  0  0  0  0  0
  147.2197  131.2648  149.9353 H   0  0  0  0  0  0  0  0  0  0  0  0
  146.0939  131.2973  151.2779 H   0  0  0  0  0  0  0  0  0  0  0  0
  143.4207  132.6444  149.2551 H   0  0  0  0  0  0  0  0  0  0  0  0
  143.8378  132.1209  150.8749 H   0  0  0  0  0  0  0  0  0  0  0  0
  143.7500  134.6139  150.7715 H   0  0  0  0  0  0  0  0  0  0  0  0
  144.8788  134.6212  149.4369 H   0  0  0  0  0  0  0  0  0  0  0  0
  148.3474  142.5048  155.2223 H   0  0  0  0  0  0  0  0  0  0  0  0
  1  2  1  0  0  0  0
  1 22  1  0  0  0  0
  1 23  1  0  0  0  0
  1 24  1  0  0  0  0
  2 21  2  0  0  0  0
  2  3  1  0  0  0  0
  3  4  2  0  0  0  0
  3 25  1  0  0  0  0
  4  5  1  0  0  0  0
  5  6  1  0  0  0  0
  5 21  1  0  0  0  0
  6  7  1  0  0  0  0
  6  8  1  0  0  0  0
  6 26  1  0  0  0  0
  7 27  1  0  0  0  0
  7 28  1  0  0  0  0
  7 29  1  0  0  0  0
  8  9  1  0  0  0  0
  8 10  1  0  0  0  0
  8 30  1  0  0  0  0
  9 31  1  0  0  0  0
  9 32  1  0  0  0  0
  9 33  1  0  0  0  0
 10 11  1  0  0  0  0
 10 34  1  0  0  0  0
 11 12  1  0  0  0  0
 11 35  1  0  0  0  0
 11 36  1  0  0  0  0
 12 13  2  0  0  0  0
 12 14  1  0  0  0  0
 14 15  1  0  0  0  0
 14 37  1  0  0  0  0
 15 20  1  0  0  0  0
 15 16  1  0  0  0  0
 15 38  1  0  0  0  0
 16 17  1  0  0  0  0
 16 39  1  0  0  0  0
 16 40  1  0  0  0  0
 17 18  1  0  0  0  0
 17 41  1  0  0  0  0
 17 42  1  0  0  0  0
 18 19  1  0  0  0  0
 19 20  1  0  0  0  0
 19 43  1  0  0  0  0
 19 44  1  0  0  0  0
 20 45  1  0  0  0  0
 20 46  1  0  0  0  0
 21 47  1  0  0  0  0
M  END
> <s_m_source_file>
AV-unprocessed.smi

> <i_m_source_file_index>
3028

> <i_lp_mmshare_version>
43012

> <i_f3d_flags>
0

> <s_epik_input>
W0NIM11jMVtjSF1ubihbY0hdMSlbQ0BIXShbQ0gzXSlbQ0BIXShbQ0gzXSlbTkhdW0NIMl1DKD1PKVtOSF1bQ0hdMltDSDJdW0NIMl1PW0NIMl1bQ0gyXTI=

> <s_epik_cmdline>
J2VwaWtfcHl0aG9uJywgJy1waCcsICc3LjAnLCAnLXRuJywgJzgnLCAnLW1hJywgJzIwMCcsICctbWV0YWxfYmluZGluZycsICctaW1hZScsICc8aW5maWxlLm1hZT4nLCAnLW9tYWUnLCAnPG91dGZpbGUubWFlPic=

> <r_lp_tautomer_probability>
1

> <r_epik_Ionization_Penalty>
0.88617

> <r_epik_Ionization_Penalty_Charging>
0

> <r_epik_Ionization_Penalty_Neutral>
0.88617

> <r_epik_State_Penalty>
0.921066

> <r_epik_Charging_Adjusted_Penalty>
0.921066

> <i_epik_Tot_Q>
0

> <i_epik_Tot_abs_Q>
0

> <r_epik_Metal_State_Penalty>
0.917309

> <b_epik_Metal_Only>
0

> <s_lp_Force_Field>
OPLS_2005

> <r_lp_Energy>
19.247

> <b_lp_Chiralities_Consistent>
1

> <s_lp_Variant>
AV-unprocessed.smi:3028-5

> <Gold.Version>
5.8.1

> <Gold.Id.Protein>
6NUR|6NUR_protein|mol2

> <Gold.PLP.Fitness>
44.9004

> <Gold.PLP.PLP>
-37.8128

> <Gold.PLP.part.hbond>
-2.0593

> <Gold.PLP.part.metal>
0.0000

> <Gold.PLP.part.buried>
-2.3383

> <Gold.PLP.part.nonpolar>
-34.0119

> <Gold.PLP.part.repulsive>
0.7327

> <Gold.PLP.ligand.clash>
0.0000

> <Gold.PLP.ligand.torsion>
0.9112

> <Gold.PLP.Chemscore.Hbond>
1.9440

> <Gold.PLP.Chemscore.CHOScore>
1.0000

> <Gold.PLP.Chemscore.Metal>
0.0000

> <Gold.Chemscore.Hbonds>
donor molecule, donor type, donor heavy atom, donor atom, acceptor molecule, acceptor atom, score
      L1  H    10    34       P1 10175  0.99
      L1  H    14    37       P1  7948  1.00
      L1  C    21    47       P1  8028  0.91

> <Gold.PLP.Chemscore.Internal.Correction>
0.0779

> <Gold.Rescore>
     Score         DG    S(hbond)    S(metal)    S(lipo)     H(rot)  DE(clash)    DE(int)     intcor
     14.71     -17.11       1.64        0.00      94.54       1.92       0.20       2.19       ----

> <Gold.Chemscore.Fitness>
14.7145

> <Gold.Chemscore.DG>
-17.1069

> <Gold.Chemscore.ZeroCoef>
-5.4800

> <Gold.Chemscore.Hbond>
1.6436

> <Gold.Chemscore.Metal>
0.0000

> <Gold.Chemscore.Lipo>
94.5371

> <Gold.Chemscore.Internal_Hbond>
0.0000

> <Gold.Chemscore.DEClash>
0.2028

> <Gold.Chemscore.DEInternal>
2.1896

> <Gold.Chemscore.Rot>
1.9233

> <Gold.Chemscore.Internal.Correction>
   9.000000E+99

> <Gold.Chemscore.Hbonds>
donor molecule, donor type, donor heavy atom, donor atom, acceptor molecule, acceptor atom, score
      L1  H    10    34       P1 10175  0.91
      L1  H    14    37       P1  7948  0.92

> <Gold.Chemscore.Hbond.Weighted>
-5.4896

> <Gold.Chemscore.Metal.Weighted>
-0.0000

> <Gold.Chemscore.Lipo.Weighted>
-11.0608

> <Gold.Chemscore.Internal_Hbond.Weighted>
0.0000

> <Gold.Chemscore.DEClash.Weighted>
0.2028

> <Gold.Chemscore.DEInternal.Weighted>
2.1896

> <Gold.Chemscore.Rot.Weighted>
4.9235

> <Gold.Chemscore.Internal.Correction.Weighted>
   9.000000E+99

> <Gold.Protein.RotatedTorsions>
[ 6907 6896 6895 6894 ] final   62.26 input  -60.11 | X-H torsion
[ 7974 7965 7964 7962 ] final  -30.71 input  175.53 | X-H torsion
[ 8008 7997 7996 7995 ] final  159.44 input   59.86 | X-H torsion
[ 10167 10162 10161 10158 ] final -150.05 input  -65.29 | X-H torsion
[ 10718 10713 10712 10709 ] final  170.56 input   66.30 | X-H torsion
[ 10763 10752 10751 10750 ] final   -9.00 input  -60.55 | X-H torsion
[ 11005 11000 10999 10996 ] final   30.20 input  -57.11 | X-H torsion

> <Gold.Protein.ActiveResidues>
 VAL166  LYS551  ARG553  GLY616  TRP617  ASP618  TYR619  PRO620  LYS621  CYS622 
 ASP623  PHE694  ASN695  SER759  ASP760  ASP761  ALA762  ILE779  LEU786  VAL792 
 PHE793  MET794  SER795  GLU796  ALA797  LYS798  CYS799  TRP800  GLU811  SER814 

> <Gold.Protein.RotatedAtoms>
  152.4157  134.6045  160.0008 H   0  0  0  0  0  0  0  0  0  0  0  0  # atno 6907 bound_to 6896
  151.6210  133.3333  159.3096 H   0  0  0  0  0  0  0  0  0  0  0  0  # atno 6908 bound_to 6896
  150.8046  134.7202  159.6698 H   0  0  0  0  0  0  0  0  0  0  0  0  # atno 6909 bound_to 6896
  146.1123  140.5574  142.8772 H   0  0  0  0  0  0  0  0  0  0  0  0  # atno 7974 bound_to 7965
  156.2239  140.1831  156.7412 H   0  0  0  0  0  0  0  0  0  0  0  0  # atno 8008 bound_to 7997
  154.5909  140.0651  156.9265 H   0  0  0  0  0  0  0  0  0  0  0  0  # atno 8009 bound_to 7997
  155.2339  140.3317  155.4302 H   0  0  0  0  0  0  0  0  0  0  0  0  # atno 8010 bound_to 7997
  139.7389  143.8693  152.2556 H   0  0  0  0  0  0  0  0  0  0  0  0  # atno 10167 bound_to 10162
  157.0064  131.0191  151.2816 H   0  0  0  0  0  0  0  0  0  0  0  0  # atno 10718 bound_to 10713
  153.4485  135.7014  153.6124 H   0  0  0  0  0  0  0  0  0  0  0  0  # atno 10763 bound_to 10752
  153.4469  135.3767  155.2261 H   0  0  0  0  0  0  0  0  0  0  0  0  # atno 10764 bound_to 10752
  154.8728  135.3987  154.3894 H   0  0  0  0  0  0  0  0  0  0  0  0  # atno 10765 bound_to 10752
  140.2968  134.2801  155.7763 H   0  0  0  0  0  0  0  0  0  0  0  0  # atno 11005 bound_to 11000
  144.7522  140.5219  143.6794 LP  0  0  0  0  0  0  0  0  0  0  0  0  # atno 17320 bound_to 7965
  145.5639  139.1480  143.3326 LP  0  0  0  0  0  0  0  0  0  0  0  0  # atno 17321 bound_to 7965
  139.8638  144.7104  150.9068 LP  0  0  0  0  0  0  0  0  0  0  0  0  # atno 17342 bound_to 10162
  140.7783  143.3795  151.1502 LP  0  0  0  0  0  0  0  0  0  0  0  0  # atno 17343 bound_to 10162
  157.5353  130.8084  149.7964 LP  0  0  0  0  0  0  0  0  0  0  0  0  # atno 17370 bound_to 10713
  156.0152  130.3816  150.2134 LP  0  0  0  0  0  0  0  0  0  0  0  0  # atno 17371 bound_to 10713
  141.2136  133.7621  156.9708 LP  0  0  0  0  0  0  0  0  0  0  0  0  # atno 17394 bound_to 11000
  140.1145  134.9456  157.2114 LP  0  0  0  0  0  0  0  0  0  0  0  0  # atno 17395 bound_to 11000

$$$$
