AV-unprocessed.smi:1142|AV-procd|sdf|4874|dock3
  -GOLD-   22720 3443D 1   1.00000     0.00000
 Structure written by MMmdl.
 32 33  0  0  0  0  0  0  0  0  2 V2000
  153.6281  137.3578  161.5641 C   0  0  0  0  0  0  0  0  0  0  0  0
  153.8170  137.6286  160.3883 C   0  0  0  0  0  0  0  0  0  0  0  0
  154.0600  137.9594  158.9759 C   0  0  0  0  0  0  0  0  0  0  0  0
  153.6584  139.3348  158.7059 N   0  5  0  0  0  0  0  0  0  0  0  0
  152.3666  139.7680  158.7065 C   0  0  0  0  0  0  0  0  0  0  0  0
  151.3149  139.1216  158.6470 O   0  0  0  0  0  0  0  0  0  0  0  0
  152.2618  141.2622  158.8728 C   0  0  0  0  0  0  0  0  0  0  0  0
  153.1167  141.8995  159.7989 C   0  0  0  0  0  0  0  0  0  0  0  0
  153.0282  143.2912  159.9834 C   0  0  0  0  0  0  0  0  0  0  0  0
  152.0716  144.0009  159.2370 C   0  0  0  0  0  0  0  0  0  0  0  0
  151.2296  143.4115  158.3645 N   0  0  0  0  0  0  0  0  0  0  0  0
  151.3083  142.0692  158.1831 C   0  0  0  0  0  0  0  0  0  0  0  0
  150.3762  141.5073  157.2929 N   0  0  0  0  0  0  0  0  0  0  0  0
  150.6527  141.7992  155.8930 C   0  0  0  0  0  0  0  0  0  0  0  0
  149.7136  140.9748  154.9963 C   0  0  0  0  0  0  0  0  0  0  0  0
  148.3584  141.2372  155.3530 O   0  0  0  0  0  0  0  0  0  0  0  0
  148.0828  140.8825  156.7059 C   0  0  0  0  0  0  0  0  0  0  0  0
  148.9778  141.7057  157.6485 C   0  0  0  0  0  0  0  0  0  0  0  0
  153.4649  137.1260  162.5921 H   0  0  0  0  0  0  0  0  0  0  0  0
  155.1191  137.7817  158.7844 H   0  0  0  0  0  0  0  0  0  0  0  0
  153.5053  137.2403  158.3727 H   0  0  0  0  0  0  0  0  0  0  0  0
  153.8435  141.3295  160.3597 H   0  0  0  0  0  0  0  0  0  0  0  0
  153.6782  143.8005  160.6790 H   0  0  0  0  0  0  0  0  0  0  0  0
  151.9740  145.0706  159.3489 H   0  0  0  0  0  0  0  0  0  0  0  0
  150.5108  142.8644  155.7060 H   0  0  0  0  0  0  0  0  0  0  0  0
  151.6925  141.5656  155.6613 H   0  0  0  0  0  0  0  0  0  0  0  0
  149.8656  141.2381  153.9496 H   0  0  0  0  0  0  0  0  0  0  0  0
  149.9242  139.9083  155.0911 H   0  0  0  0  0  0  0  0  0  0  0  0
  147.0319  141.0776  156.9187 H   0  0  0  0  0  0  0  0  0  0  0  0
  148.2453  139.8133  156.8522 H   0  0  0  0  0  0  0  0  0  0  0  0
  148.8132  141.4040  158.6835 H   0  0  0  0  0  0  0  0  0  0  0  0
  148.7221  142.7634  157.5724 H   0  0  0  0  0  0  0  0  0  0  0  0
  1  2  3  0  0  0  0
  1 19  1  0  0  0  0
  2  3  1  0  0  0  0
  3  4  1  0  0  0  0
  3 20  1  0  0  0  0
  3 21  1  0  0  0  0
  4  5  1  0  0  0  0
  5  6  2  0  0  0  0
  5  7  1  0  0  0  0
  7 12  1  0  0  0  0
  7  8  2  0  0  0  0
  8  9  1  0  0  0  0
  8 22  1  0  0  0  0
  9 10  2  0  0  0  0
  9 23  1  0  0  0  0
 10 11  1  0  0  0  0
 10 24  1  0  0  0  0
 11 12  2  0  0  0  0
 12 13  1  0  0  0  0
 13 18  1  0  0  0  0
 13 14  1  0  0  0  0
 14 15  1  0  0  0  0
 14 25  1  0  0  0  0
 14 26  1  0  0  0  0
 15 16  1  0  0  0  0
 15 27  1  0  0  0  0
 15 28  1  0  0  0  0
 16 17  1  0  0  0  0
 17 18  1  0  0  0  0
 17 29  1  0  0  0  0
 17 30  1  0  0  0  0
 18 31  1  0  0  0  0
 18 32  1  0  0  0  0
M  CHG  1   4  -1
M  END
> <s_m_source_file>
AV-unprocessed.smi

> <i_m_source_file_index>
1142

> <i_lp_mmshare_version>
43012

> <i_f3d_flags>
0

> <s_epik_input>
W0NIXSNDW0NIMl1bTkhdQyg9TyljMVtjSF1bY0hdW2NIXW5jMU4yW0NIMl1bQ0gyXU9bQ0gyXVtDSDJdMg==

> <s_epik_cmdline>
J2VwaWtfcHl0aG9uJywgJy1waCcsICc3LjAnLCAnLXRuJywgJzgnLCAnLW1hJywgJzIwMCcsICctbWV0YWxfYmluZGluZycsICctaW1hZScsICc8aW5maWxlLm1hZT4nLCAnLW9tYWUnLCAnPG91dGZpbGUubWFlPic=

> <r_lp_tautomer_probability>
1

> <r_epik_Ionization_Penalty>
6.8086

> <r_epik_Ionization_Penalty_Charging>
6.808

> <r_epik_Ionization_Penalty_Neutral>
0.000606165

> <r_epik_State_Penalty>
6.80799

> <r_epik_Charging_Adjusted_Penalty>
13.616

> <i_epik_Tot_Q>
-1

> <i_epik_Tot_abs_Q>
1

> <r_epik_Metal_State_Penalty>
2.72724

> <b_epik_Metal_Only>
1

> <s_lp_Force_Field>
OPLS_2005

> <r_lp_Energy>
27.7

> <b_lp_Chiralities_Consistent>
1

> <s_lp_Variant>
AV-unprocessed.smi:1142-2

> <Gold.Version>
5.8.1

> <Gold.Id.Protein>
6NUR|6NUR_protein|mol2

> <Gold.PLP.Fitness>
36.7570

> <Gold.PLP.PLP>
-31.8368

> <Gold.PLP.part.hbond>
-1.0000

> <Gold.PLP.part.metal>
0.0000

> <Gold.PLP.part.buried>
-4.6882

> <Gold.PLP.part.nonpolar>
-25.7642

> <Gold.PLP.part.repulsive>
0.2509

> <Gold.PLP.ligand.clash>
0.0000

> <Gold.PLP.ligand.torsion>
0.9018

> <Gold.PLP.Chemscore.Hbond>
2.0000

> <Gold.PLP.Chemscore.CHOScore>
0.0000

> <Gold.PLP.Chemscore.Metal>
0.0000

> <Gold.Chemscore.Hbonds>
donor molecule, donor type, donor heavy atom, donor atom, acceptor molecule, acceptor atom, score
      P1  H  7997  8009       L1     4  2.00

> <Gold.PLP.Chemscore.Internal.Correction>
0.7238

> <Gold.Rescore>
     Score         DG    S(hbond)    S(metal)    S(lipo)     H(rot)  DE(clash)    DE(int)     intcor
     12.61     -15.10       0.86        0.00      83.35       1.17       0.32       2.17       ----

> <Gold.Chemscore.Fitness>
12.6089

> <Gold.Chemscore.DG>
-15.0996

> <Gold.Chemscore.ZeroCoef>
-5.4800

> <Gold.Chemscore.Hbond>
0.8589

> <Gold.Chemscore.Metal>
0.0000

> <Gold.Chemscore.Lipo>
83.3529

> <Gold.Chemscore.Internal_Hbond>
0.0000

> <Gold.Chemscore.DEClash>
0.3192

> <Gold.Chemscore.DEInternal>
2.1715

> <Gold.Chemscore.Rot>
1.1725

> <Gold.Chemscore.Internal.Correction>
   9.000000E+99

> <Gold.Chemscore.Hbonds>
donor molecule, donor type, donor heavy atom, donor atom, acceptor molecule, acceptor atom, score
      P1  H  7997  8009       L1     4  0.53

> <Gold.Chemscore.Hbond.Weighted>
-2.8688

> <Gold.Chemscore.Metal.Weighted>
-0.0000

> <Gold.Chemscore.Lipo.Weighted>
-9.7523

> <Gold.Chemscore.Internal_Hbond.Weighted>
0.0000

> <Gold.Chemscore.DEClash.Weighted>
0.3192

> <Gold.Chemscore.DEInternal.Weighted>
2.1715

> <Gold.Chemscore.Rot.Weighted>
3.0015

> <Gold.Chemscore.Internal.Correction.Weighted>
   9.000000E+99

> <Gold.Protein.RotatedTorsions>
[ 6907 6896 6895 6894 ] final  -68.75 input  -60.11 | X-H torsion
[ 7974 7965 7964 7962 ] final  178.65 input  175.53 | X-H torsion
[ 8008 7997 7996 7995 ] final  136.71 input   59.86 | X-H torsion
[ 10167 10162 10161 10158 ] final   48.17 input  -65.29 | X-H torsion
[ 10718 10713 10712 10709 ] final   50.04 input   66.30 | X-H torsion
[ 10763 10752 10751 10750 ] final   -2.71 input  -60.55 | X-H torsion
[ 11005 11000 10999 10996 ] final -134.28 input  -57.11 | X-H torsion

> <Gold.Protein.ActiveResidues>
 VAL166  LYS551  ARG553  GLY616  TRP617  ASP618  TYR619  PRO620  LYS621  CYS622 
 ASP623  PHE694  ASN695  SER759  ASP760  ASP761  ALA762  ILE779  LEU786  VAL792 
 PHE793  MET794  SER795  GLU796  ALA797  LYS798  CYS799  TRP800  GLU811  SER814 

> <Gold.Protein.RotatedAtoms>
  150.7340  134.5695  159.5882 H   0  0  0  0  0  0  0  0  0  0  0  0  # atno 6907 bound_to 6896
  152.3137  134.7463  160.0339 H   0  0  0  0  0  0  0  0  0  0  0  0  # atno 6908 bound_to 6896
  151.8002  133.3333  159.3561 H   0  0  0  0  0  0  0  0  0  0  0  0  # atno 6909 bound_to 6896
  144.7154  140.0429  143.6437 H   0  0  0  0  0  0  0  0  0  0  0  0  # atno 7974 bound_to 7965
  156.3003  140.2438  156.3791 H   0  0  0  0  0  0  0  0  0  0  0  0  # atno 8008 bound_to 7997
  154.8718  140.0416  157.1749 H   0  0  0  0  0  0  0  0  0  0  0  0  # atno 8009 bound_to 7997
  154.8788  140.2946  155.5441 H   0  0  0  0  0  0  0  0  0  0  0  0  # atno 8010 bound_to 7997
  140.2960  144.2990  150.6229 H   0  0  0  0  0  0  0  0  0  0  0  0  # atno 10167 bound_to 10162
  157.4846  130.8337  149.8132 H   0  0  0  0  0  0  0  0  0  0  0  0  # atno 10718 bound_to 10713
  153.3617  135.6990  153.6707 H   0  0  0  0  0  0  0  0  0  0  0  0  # atno 10763 bound_to 10752
  153.5393  135.3576  155.2712 H   0  0  0  0  0  0  0  0  0  0  0  0  # atno 10764 bound_to 10752
  154.8669  135.4200  154.2875 H   0  0  0  0  0  0  0  0  0  0  0  0  # atno 10765 bound_to 10752
  140.9004  134.1697  157.4464 H   0  0  0  0  0  0  0  0  0  0  0  0  # atno 11005 bound_to 11000
  146.0009  139.3090  143.0928 LP  0  0  0  0  0  0  0  0  0  0  0  0  # atno 17320 bound_to 7965
  145.8795  140.9371  143.0609 LP  0  0  0  0  0  0  0  0  0  0  0  0  # atno 17321 bound_to 7965
  140.5691  143.2183  151.7630 LP  0  0  0  0  0  0  0  0  0  0  0  0  # atno 17342 bound_to 10162
  139.4926  144.4241  151.9945 LP  0  0  0  0  0  0  0  0  0  0  0  0  # atno 17343 bound_to 10162
  156.0140  130.3821  150.2172 LP  0  0  0  0  0  0  0  0  0  0  0  0  # atno 17370 bound_to 10713
  157.0359  131.0021  151.3298 LP  0  0  0  0  0  0  0  0  0  0  0  0  # atno 17371 bound_to 10713
  139.8741  134.9896  156.5463 LP  0  0  0  0  0  0  0  0  0  0  0  0  # atno 17394 bound_to 11000
  140.8236  133.8334  155.8918 LP  0  0  0  0  0  0  0  0  0  0  0  0  # atno 17395 bound_to 11000

$$$$
