#       Name:                AV-unprocessed.smi:2031
#       Creating user name   scv26
#       Creation time:       Fri Mar 27 10:49:58 2020


#       File generated by GOLD software.
#

@<TRIPOS>MOLECULE
AV-unprocessed.smi:2031
    47    48     1
SMALL
NO_CHARGES


@<TRIPOS>ATOM
      1 ****        -6.6900   3.7233  -0.5730 C.3            1 S1                 0.0000
      2 ****        -5.9917   2.4146  -0.7160 C.2            1 S1                 0.0000
      3 ****        -4.6714   2.0670  -0.7670 C.2            1 S1                 0.0000
      4 ****        -4.7198   0.6500  -0.9144 C.2            1 S1                 0.0000
      5 ****        -3.6062  -0.2231  -1.0186 N.am           1 S1                 0.0000
      6 ****        -2.2989   0.0837  -0.9720 C.2            1 S1                 0.0000
      7 ****        -1.8349   1.2145  -0.8256 O.2            1 S1                 0.0000
      8 ****        -1.5354  -1.0113  -1.0988 N.am           1 S1                 0.0000
      9 ****        -0.0769  -1.0140  -1.0782 C.3            1 S1                 0.0000
     10 ****         0.4651  -0.8672   0.3580 C.3            1 S1                 0.0000
     11 ****         1.9498  -0.9192   0.4324 N.4            1 S1                 1.0000
     12 ****         2.4390  -1.1330   1.8205 C.3            1 S1                 0.0000
     13 ****         3.6304  -2.1059   1.8390 C.3            1 S1                 0.0000
     14 ****         4.9724  -1.4777   1.4386 C.3            1 S1                 0.0000
     15 ****         4.9677  -0.8068   0.0565 C.3            1 S1                 0.0000
     16 ****         4.0895   0.4536   0.0225 C.3            1 S1                 0.0000
     17 ****         2.6017   0.2055  -0.2995 C.3            1 S1                 0.0000
     18 ****        -5.9545   0.1843  -0.9512 N.2            1 S1                 0.0000
     19 ****        -6.7774   1.3095  -0.8245 O.3            1 S1                 0.0000
     20 ****        -5.9970   4.5004  -0.2499 H              1 S1                 0.0000
     21 ****        -7.4912   3.6579   0.1636 H              1 S1                 0.0000
     22 ****        -7.1264   4.0329  -1.5226 H              1 S1                 0.0000
     23 ****        -3.8241   2.7330  -0.7078 H              1 S1                 0.0000
     24 ****        -3.8356  -1.1988  -1.1373 H              1 S1                 0.0000
     25 ****        -1.9938  -1.9033  -1.2177 H              1 S1                 0.0000
     26 ****         0.2684  -1.9523  -1.5134 H              1 S1                 0.0000
     27 ****         0.2846  -0.2160  -1.7278 H              1 S1                 0.0000
     28 ****         0.1162   0.0608   0.8140 H              1 S1                 0.0000
     29 ****         0.0449  -1.6811   0.9507 H              1 S1                 0.0000
     30 ****         2.6659  -0.1898   2.3191 H              1 S1                 0.0000
     31 ****         1.6526  -1.5928   2.4199 H              1 S1                 0.0000
     32 ****         3.7367  -2.5069   2.8477 H              1 S1                 0.0000
     33 ****         3.4160  -2.9647   1.2014 H              1 S1                 0.0000
     34 ****         5.2751  -0.7526   2.1952 H              1 S1                 0.0000
     35 ****         5.7374  -2.2548   1.4517 H              1 S1                 0.0000
     36 ****         5.9930  -0.5173  -0.1766 H              1 S1                 0.0000
     37 ****         4.6699  -1.5108  -0.7217 H              1 S1                 0.0000
     38 ****         4.1890   1.0018   0.9602 H              1 S1                 0.0000
     39 ****         4.4810   1.1289  -0.7391 H              1 S1                 0.0000
     40 ****         2.5130   0.0069  -1.3677 H              1 S1                 0.0000
     41 ****         2.0530   1.1296  -0.1112 H              1 S1                 0.0000
     42 ****         2.2128  -1.7607  -0.0603 H              1 S1                 0.0000
     43 ****        -2.4486   1.9982  -0.7296 LP             1 S1                 0.0000
     44 ****        -0.8443   1.3494  -0.8027 LP             1 S1                 0.0000
     45 ****        -6.2408  -0.7688  -1.0487 LP             1 S1                 0.0000
     46 ****        -7.3628   1.3908  -1.6311 LP             1 S1                 0.0000
     47 ****        -7.3466   1.2198  -0.0072 LP             1 S1                 0.0000
@<TRIPOS>BOND
    1    1    2 1     
    2    1   20 1     
    3    1   21 1     
    4    1   22 1     
    5    2   19 1     
    6    2    3 2     
    7    3    4 1     
    8    3   23 1     
    9    4    5 1     
   10    4   18 2     
   11    5    6 am    
   12    5   24 1     
   13    6    7 2     
   14    6    8 am    
   15    8    9 1     
   16    8   25 1     
   17    9   10 1     
   18    9   26 1     
   19    9   27 1     
   20   10   11 1     
   21   10   28 1     
   22   10   29 1     
   23   11   17 1     
   24   11   12 1     
   25   11   42 1     
   26   12   13 1     
   27   12   30 1     
   28   12   31 1     
   29   13   14 1     
   30   13   32 1     
   31   13   33 1     
   32   14   15 1     
   33   14   34 1     
   34   14   35 1     
   35   15   16 1     
   36   15   36 1     
   37   15   37 1     
   38   16   17 1     
   39   16   38 1     
   40   16   39 1     
   41   17   40 1     
   42   17   41 1     
   43   18   19 1     
   44    7   43 1     
   45    7   44 1     
   46   18   45 1     
   47   19   46 1     
   48   19   47 1     
@<TRIPOS>SUBSTRUCTURE
      1 S1             1
@<TRIPOS>SET
LONE_PAIRS      STATIC     ATOMS    <user>   **** ""
5 43 44 45 46 47
DONOR_HYDROGENS      STATIC     ATOMS    <user>   **** ""
3 24 25 42
ATOM$BLUE        STATIC     ATOMS    COLORGROUP SYSTEM
5 43 44 45 46 47
ATOM$RED        STATIC     ATOMS    COLORGROUP SYSTEM
3 24 25 42
