#       Name:                AV-unprocessed.smi:2758
#       Creating user name   scv26
#       Creation time:       Fri Mar 27 15:07:05 2020


#       File generated by GOLD software.
#

@<TRIPOS>MOLECULE
AV-unprocessed.smi:2758
    37    38     1
SMALL
NO_CHARGES


@<TRIPOS>ATOM
      1 ****        -4.6889   2.0573   0.6067 C.3            1 S1                 0.0000
      2 ****        -3.2754   1.9851   0.6728 O.3            1 S1                 0.0000
      3 ****        -2.7690   0.7564   0.1775 C.3            1 S1                 0.0000
      4 ****        -1.2354   0.7585   0.2851 C.3            1 S1                 0.0000
      5 ****        -0.7090   1.4804  -0.8116 O.3            1 S1                 0.0000
      6 ****        -0.6592  -0.6725   0.2744 C.3            1 S1                 0.0000
      7 ****         0.7942  -0.7016   0.3783 N.pl3          1 S1                 0.0000
      8 ****         1.5497  -0.6766   1.5036 C.2            1 S1                 0.0000
      9 ****         0.9353  -0.6180   2.8661 C.3            1 S1                 0.0000
     10 ****         2.8696  -0.7141   1.3199 N.2            1 S1                 0.0000
     11 ****         2.9821  -0.7724  -0.0560 C.ar           1 S1                 0.0000
     12 ****         4.1274  -0.8336  -0.8819 C.ar           1 S1                 0.0000
     13 ****         3.9937  -0.8897  -2.2847 C.ar           1 S1                 0.0000
     14 ****         2.7159  -0.8848  -2.8807 C.ar           1 S1                 0.0000
     15 ****         1.5617  -0.8238  -2.0763 C.ar           1 S1                 0.0000
     16 ****         1.7002  -0.7684  -0.6764 C.ar           1 S1                 0.0000
     17 ****        -0.9370   1.2575   1.2073 H              1 S1                 0.0000
     18 ****        -5.0252   3.0189   0.9944 H              1 S1                 0.0000
     19 ****        -5.1531   1.2722   1.2050 H              1 S1                 0.0000
     20 ****        -5.0401   1.9685  -0.4221 H              1 S1                 0.0000
     21 ****        -3.1778  -0.0492   0.7897 H              1 S1                 0.0000
     22 ****        -3.0927   0.5757  -0.8494 H              1 S1                 0.0000
     23 ****        -0.9736   1.0502  -1.6100 H              1 S1                 0.0000
     24 ****        -1.0789  -1.2552   1.0948 H              1 S1                 0.0000
     25 ****        -0.9519  -1.1900  -0.6400 H              1 S1                 0.0000
     26 ****         1.7096  -0.5679   3.6323 H              1 S1                 0.0000
     27 ****         0.3324  -1.5081   3.0462 H              1 S1                 0.0000
     28 ****         0.3031   0.2641   2.9622 H              1 S1                 0.0000
     29 ****         5.1106  -0.8371  -0.4352 H              1 S1                 0.0000
     30 ****         4.8757  -0.9360  -2.9064 H              1 S1                 0.0000
     31 ****         2.6224  -0.9269  -3.9559 H              1 S1                 0.0000
     32 ****         0.5823  -0.8177  -2.5305 H              1 S1                 0.0000
     33 ****        -2.9936   2.0864   1.6270 LP             1 S1                 0.0000
     34 ****        -2.8907   2.7320   0.1306 LP             1 S1                 0.0000
     35 ****         0.2892   1.5000  -0.7542 LP             1 S1                 0.0000
     36 ****        -1.0620   2.4159  -0.7999 LP             1 S1                 0.0000
     37 ****         3.5967  -0.7029   2.0064 LP             1 S1                 0.0000
@<TRIPOS>BOND
    1    1    2 1     
    2    1   18 1     
    3    1   19 1     
    4    1   20 1     
    5    2    3 1     
    6    3    4 1     
    7    3   21 1     
    8    3   22 1     
    9    4   17 1     
   10    4    5 1     
   11    4    6 1     
   12    5   23 1     
   13    6    7 1     
   14    6   24 1     
   15    6   25 1     
   16    7   16 1     
   17    7    8 1     
   18    8    9 1     
   19    8   10 2     
   20    9   26 1     
   21    9   27 1     
   22    9   28 1     
   23   10   11 1     
   24   11   16 ar    
   25   11   12 ar    
   26   12   13 ar    
   27   12   29 1     
   28   13   14 ar    
   29   13   30 1     
   30   14   15 ar    
   31   14   31 1     
   32   15   16 ar    
   33   15   32 1     
   34    2   33 1     
   35    2   34 1     
   36    5   35 1     
   37    5   36 1     
   38   10   37 1     
@<TRIPOS>SUBSTRUCTURE
      1 S1             1
@<TRIPOS>SET
LONE_PAIRS      STATIC     ATOMS    <user>   **** ""
5 33 34 35 36 37
DONOR_HYDROGENS      STATIC     ATOMS    <user>   **** ""
1 23
ATOM$BLUE        STATIC     ATOMS    COLORGROUP SYSTEM
5 33 34 35 36 37
ATOM$RED        STATIC     ATOMS    COLORGROUP SYSTEM
1 23
