AV-unprocessed.smi:510|AV-procd|sdf|2763|dock7
  -GOLD-   2262023233D 1   1.00000     0.00000
 Structure written by MMmdl.
 29 30  0  0  0  0  0  0  0  0  2 V2000
  148.8936  141.5689  154.4588 C   0  0  0  0  0  0  0  0  0  0  0  0
  149.9952  140.8129  154.9296 O   0  0  0  0  0  0  0  0  0  0  0  0
  150.2725  141.0550  156.2984 C   0  0  0  0  0  0  0  0  0  0  0  0
  150.9724  142.4130  156.4290 C   0  0  0  0  0  0  0  0  0  0  0  0
  151.4000  142.6683  157.8004 N   0  0  0  0  0  0  0  0  0  0  0  0
  151.1548  143.7722  158.5490 C   0  0  0  0  0  0  0  0  0  0  0  0
  150.4306  144.8360  158.0302 N   0  0  0  0  0  0  0  0  0  0  0  0
  151.6600  143.7446  159.7823 N   0  0  0  0  0  0  0  0  0  0  0  0
  152.2942  142.5101  159.8178 C   0  0  0  0  0  0  0  0  0  0  0  0
  152.1605  141.8484  158.6372 C   0  0  0  0  0  0  0  0  0  0  0  0
  152.7447  140.5182  158.3678 C   0  0  0  0  0  0  0  0  0  0  0  0
  152.6058  139.9748  157.2738 O   0  0  0  0  0  0  0  0  0  0  0  0
  153.4230  140.0250  159.4523 N   0  5  0  0  0  0  0  0  0  0  0  0
  153.5788  140.6561  160.6689 C   0  0  0  0  0  0  0  0  0  0  0  0
  154.2078  140.1334  161.5893 O   0  0  0  0  0  0  0  0  0  0  0  0
  153.0244  141.8953  160.8690 N   0  0  0  0  0  0  0  0  0  0  0  0
  153.1435  142.6322  162.1307 C   0  0  0  0  0  0  0  0  0  0  0  0
  148.7207  141.3481  153.4056 H   0  0  0  0  0  0  0  0  0  0  0  0
  149.0818  142.6392  154.5526 H   0  0  0  0  0  0  0  0  0  0  0  0
  147.9836  141.3238  155.0081 H   0  0  0  0  0  0  0  0  0  0  0  0
  149.3467  141.0492  156.8759 H   0  0  0  0  0  0  0  0  0  0  0  0
  150.9126  140.2643  156.6932 H   0  0  0  0  0  0  0  0  0  0  0  0
  151.8385  142.4512  155.7679 H   0  0  0  0  0  0  0  0  0  0  0  0
  150.3182  143.2193  156.0991 H   0  0  0  0  0  0  0  0  0  0  0  0
  150.0697  144.8152  157.0875 H   0  0  0  0  0  0  0  0  0  0  0  0
  150.2417  145.6626  158.5782 H   0  0  0  0  0  0  0  0  0  0  0  0
  153.6951  142.1072  162.9108 H   0  0  0  0  0  0  0  0  0  0  0  0
  152.1509  142.8493  162.5263 H   0  0  0  0  0  0  0  0  0  0  0  0
  153.6500  143.5821  161.9571 H   0  0  0  0  0  0  0  0  0  0  0  0
  1  2  1  0  0  0  0
  1 18  1  0  0  0  0
  1 19  1  0  0  0  0
  1 20  1  0  0  0  0
  2  3  1  0  0  0  0
  3  4  1  0  0  0  0
  3 21  1  0  0  0  0
  3 22  1  0  0  0  0
  4  5  1  0  0  0  0
  4 23  1  0  0  0  0
  4 24  1  0  0  0  0
  5 10  1  0  0  0  0
  5  6  1  0  0  0  0
  6  7  1  0  0  0  0
  6  8  2  0  0  0  0
  7 25  1  0  0  0  0
  7 26  1  0  0  0  0
  8  9  1  0  0  0  0
  9 16  1  0  0  0  0
  9 10  2  0  0  0  0
 10 11  1  0  0  0  0
 11 12  2  0  0  0  0
 11 13  1  0  0  0  0
 13 14  1  0  0  0  0
 14 15  2  0  0  0  0
 14 16  1  0  0  0  0
 16 17  1  0  0  0  0
 17 27  1  0  0  0  0
 17 28  1  0  0  0  0
 17 29  1  0  0  0  0
M  CHG  1  13  -1
M  END
> <s_m_source_file>
AV-unprocessed.smi

> <i_m_source_file_index>
510

> <i_lp_mmshare_version>
43012

> <i_f3d_flags>
0

> <s_epik_input>
W0NIM11PW0NIMl1bQ0gyXW4oYyhuMSlbTkgyXSljKGMxMiljKD1PKVtuSF1jKD1PKW4yW0NIM10=

> <s_epik_cmdline>
J2VwaWtfcHl0aG9uJywgJy1waCcsICc3LjAnLCAnLXRuJywgJzgnLCAnLW1hJywgJzIwMCcsICctbWV0YWxfYmluZGluZycsICctaW1hZScsICc8aW5maWxlLm1hZT4nLCAnLW9tYWUnLCAnPG91dGZpbGUubWFlPic=

> <r_lp_tautomer_probability>
1

> <r_epik_Ionization_Penalty>
5.7178

> <r_epik_Ionization_Penalty_Charging>
1.59161e-08

> <r_epik_Ionization_Penalty_Neutral>
5.7178

> <r_epik_State_Penalty>
5.71748

> <r_epik_Charging_Adjusted_Penalty>
5.71748

> <i_epik_Tot_Q>
-1

> <i_epik_Tot_abs_Q>
1

> <r_epik_Metal_State_Penalty>
1.69653

> <b_epik_Metal_Only>
1

> <s_lp_Force_Field>
OPLS_2005

> <r_lp_Energy>
28.6626

> <b_lp_Chiralities_Consistent>
1

> <s_lp_Variant>
AV-unprocessed.smi:510-2

> <Gold.Version>
5.8.1

> <Gold.Id.Protein>
6NUR|6NUR_protein|mol2

> <Gold.PLP.Fitness>
43.5622

> <Gold.PLP.PLP>
-35.1678

> <Gold.PLP.part.hbond>
-4.0000

> <Gold.PLP.part.metal>
0.0000

> <Gold.PLP.part.buried>
-2.9536

> <Gold.PLP.part.nonpolar>
-26.4795

> <Gold.PLP.part.repulsive>
0.2600

> <Gold.PLP.ligand.clash>
0.0000

> <Gold.PLP.ligand.torsion>
0.1355

> <Gold.PLP.Chemscore.Hbond>
2.8880

> <Gold.PLP.Chemscore.CHOScore>
0.0000

> <Gold.PLP.Chemscore.Metal>
0.0000

> <Gold.Chemscore.Hbonds>
donor molecule, donor type, donor heavy atom, donor atom, acceptor molecule, acceptor atom, score
      L1  H     7    25       P1  8028  0.95
      P1  H  7989  7998       L1     2  0.51
      P1  H  7997  8008       L1    12  0.50

> <Gold.PLP.Chemscore.Internal.Correction>
0.0014

> <Gold.Rescore>
     Score         DG    S(hbond)    S(metal)    S(lipo)     H(rot)  DE(clash)    DE(int)     intcor
      9.89     -11.22       1.58        0.00      42.57       1.77       0.03       1.29       ----

> <Gold.Chemscore.Fitness>
9.8938

> <Gold.Chemscore.DG>
-11.2160

> <Gold.Chemscore.ZeroCoef>
-5.4800

> <Gold.Chemscore.Hbond>
1.5799

> <Gold.Chemscore.Metal>
0.0000

> <Gold.Chemscore.Lipo>
42.5719

> <Gold.Chemscore.Internal_Hbond>
0.0000

> <Gold.Chemscore.DEClash>
0.0322

> <Gold.Chemscore.DEInternal>
1.2900

> <Gold.Chemscore.Rot>
1.7663

> <Gold.Chemscore.Internal.Correction>
   9.000000E+99

> <Gold.Chemscore.Hbonds>
donor molecule, donor type, donor heavy atom, donor atom, acceptor molecule, acceptor atom, score
      L1  H     7    25       P1  8028  0.21
      P1  H  7989  7998       L1     2  0.37
      P1  H  7997  8008       L1    12  0.03

> <Gold.Chemscore.Hbond.Weighted>
-5.2768

> <Gold.Chemscore.Metal.Weighted>
-0.0000

> <Gold.Chemscore.Lipo.Weighted>
-4.9809

> <Gold.Chemscore.Internal_Hbond.Weighted>
0.0000

> <Gold.Chemscore.DEClash.Weighted>
0.0322

> <Gold.Chemscore.DEInternal.Weighted>
1.2900

> <Gold.Chemscore.Rot.Weighted>
4.5217

> <Gold.Chemscore.Internal.Correction.Weighted>
   9.000000E+99

> <Gold.Protein.RotatedTorsions>
[ 6907 6896 6895 6894 ] final -150.65 input  -60.11 | X-H torsion
[ 7974 7965 7964 7962 ] final  151.89 input  175.53 | X-H torsion
[ 8008 7997 7996 7995 ] final  -81.41 input   59.86 | X-H torsion
[ 10167 10162 10161 10158 ] final -119.69 input  -65.29 | X-H torsion
[ 10718 10713 10712 10709 ] final   30.74 input   66.30 | X-H torsion
[ 10763 10752 10751 10750 ] final  173.28 input  -60.55 | X-H torsion
[ 11005 11000 10999 10996 ] final  114.47 input  -57.11 | X-H torsion

> <Gold.Protein.ActiveResidues>
 VAL166  LYS551  ARG553  GLY616  TRP617  ASP618  TYR619  PRO620  LYS621  CYS622 
 ASP623  PHE694  ASN695  SER759  ASP760  ASP761  ALA762  ILE779  LEU786  VAL792 
 PHE793  MET794  SER795  GLU796  ALA797  LYS798  CYS799  TRP800  GLU811  SER814 

> <Gold.Protein.RotatedAtoms>
  151.2016  133.4607  159.2596 H   0  0  0  0  0  0  0  0  0  0  0  0  # atno 6907 bound_to 6896
  151.1064  135.0001  159.8483 H   0  0  0  0  0  0  0  0  0  0  0  0  # atno 6908 bound_to 6896
  152.5447  134.1939  159.8738 H   0  0  0  0  0  0  0  0  0  0  0  0  # atno 6909 bound_to 6896
  144.8260  139.6597  143.6079 H   0  0  0  0  0  0  0  0  0  0  0  0  # atno 7974 bound_to 7965
  154.5981  140.0648  156.9330 H   0  0  0  0  0  0  0  0  0  0  0  0  # atno 8008 bound_to 7997
  155.2180  140.3328  155.4301 H   0  0  0  0  0  0  0  0  0  0  0  0  # atno 8009 bound_to 7997
  156.2300  140.1836  156.7250 H   0  0  0  0  0  0  0  0  0  0  0  0  # atno 8010 bound_to 7997
  140.0439  143.5126  152.2116 H   0  0  0  0  0  0  0  0  0  0  0  0  # atno 10167 bound_to 10162
  157.2634  130.7172  149.6466 H   0  0  0  0  0  0  0  0  0  0  0  0  # atno 10718 bound_to 10713
  154.4379  135.2761  155.1868 H   0  0  0  0  0  0  0  0  0  0  0  0  # atno 10763 bound_to 10752
  154.3747  135.6101  153.5762 H   0  0  0  0  0  0  0  0  0  0  0  0  # atno 10764 bound_to 10752
  152.9839  135.5866  154.4701 H   0  0  0  0  0  0  0  0  0  0  0  0  # atno 10765 bound_to 10752
  139.8981  134.9568  156.6897 H   0  0  0  0  0  0  0  0  0  0  0  0  # atno 11005 bound_to 11000
  146.2565  139.6315  142.9391 LP  0  0  0  0  0  0  0  0  0  0  0  0  # atno 17320 bound_to 7965
  145.4999  141.0437  143.2546 LP  0  0  0  0  0  0  0  0  0  0  0  0  # atno 17321 bound_to 7965
  139.5996  144.7578  151.3204 LP  0  0  0  0  0  0  0  0  0  0  0  0  # atno 17342 bound_to 10162
  140.7247  143.7036  150.7825 LP  0  0  0  0  0  0  0  0  0  0  0  0  # atno 17343 bound_to 10162
  155.9664  130.4390  150.5241 LP  0  0  0  0  0  0  0  0  0  0  0  0  # atno 17370 bound_to 10713
  157.3150  131.0671  151.1973 LP  0  0  0  0  0  0  0  0  0  0  0  0  # atno 17371 bound_to 10713
  140.7234  133.9121  155.8162 LP  0  0  0  0  0  0  0  0  0  0  0  0  # atno 17394 bound_to 11000
  141.0209  134.0890  157.4121 LP  0  0  0  0  0  0  0  0  0  0  0  0  # atno 17395 bound_to 11000

$$$$
