AV-unprocessed.smi:2283|AV-procd|sdf|9200|dock7
  -GOLD-   2272012413D 1   1.00000     0.00000
 Structure written by MMmdl.
 37 38  0  0  0  0  0  0  0  0  1 V2000
  146.9602  142.4403  154.4551 C   0  0  0  0  0  0  0  0  0  0  0  0
  147.5856  141.0638  154.3045 C   0  0  0  0  0  0  0  0  0  0  0  0
  147.1506  140.2377  153.2455 C   0  0  0  0  0  0  0  0  0  0  0  0
  147.7106  138.9612  153.0562 C   0  0  0  0  0  0  0  0  0  0  0  0
  148.7154  138.5020  153.9251 C   0  0  0  0  0  0  0  0  0  0  0  0
  149.1537  139.3175  154.9845 C   0  0  0  0  0  0  0  0  0  0  0  0
  148.5917  140.5987  155.1931 C   0  0  0  0  0  0  0  0  0  0  0  0
  149.0998  141.4571  156.3516 C   0  0  1  0  0  0  0  0  0  0  0  0
  148.8405  140.8478  157.6015 O   0  0  0  0  0  0  0  0  0  0  0  0
  150.6200  141.7055  156.2216 C   0  0  0  0  0  0  0  0  0  0  0  0
  151.2422  142.0778  157.5047 N   0  0  0  0  0  0  0  0  0  0  0  0
  150.7435  143.2345  158.1273 C   0  0  0  0  0  0  0  0  0  0  0  0
  151.2084  143.6526  159.2587 N   0  0  0  0  0  0  0  0  0  0  0  0
  152.2338  142.9466  159.8941 C   0  0  0  0  0  0  0  0  0  0  0  0
  152.7037  143.5225  161.2182 C   0  0  0  0  0  0  0  0  0  0  0  0
  152.7616  141.8190  159.3442 C   0  0  0  0  0  0  0  0  0  0  0  0
  153.8786  141.0090  159.9907 C   0  0  0  0  0  0  0  0  0  0  0  0
  152.2435  141.3321  158.0553 C   0  0  0  0  0  0  0  0  0  0  0  0
  152.6779  140.3197  157.5028 O   0  0  0  0  0  0  0  0  0  0  0  0
  146.2983  142.6696  153.6195 H   0  0  0  0  0  0  0  0  0  0  0  0
  147.7298  143.2112  154.4869 H   0  0  0  0  0  0  0  0  0  0  0  0
  146.3715  142.4941  155.3712 H   0  0  0  0  0  0  0  0  0  0  0  0
  146.3834  140.5817  152.5673 H   0  0  0  0  0  0  0  0  0  0  0  0
  147.3724  138.3370  152.2422 H   0  0  0  0  0  0  0  0  0  0  0  0
  149.1519  137.5249  153.7789 H   0  0  0  0  0  0  0  0  0  0  0  0
  149.9318  138.9512  155.6382 H   0  0  0  0  0  0  0  0  0  0  0  0
  148.5665  142.4064  156.3640 H   0  0  0  0  0  0  0  0  0  0  0  0
  148.6488  139.9340  157.4554 H   0  0  0  0  0  0  0  0  0  0  0  0
  151.1103  140.8455  155.7617 H   0  0  0  0  0  0  0  0  0  0  0  0
  150.7873  142.5177  155.5109 H   0  0  0  0  0  0  0  0  0  0  0  0
  149.9417  143.7463  157.5926 H   0  0  0  0  0  0  0  0  0  0  0  0
  152.5590  142.8002  162.0220 H   0  0  0  0  0  0  0  0  0  0  0  0
  152.1505  144.4259  161.4779 H   0  0  0  0  0  0  0  0  0  0  0  0
  153.7615  143.7819  161.1676 H   0  0  0  0  0  0  0  0  0  0  0  0
  154.7446  140.9674  159.3293 H   0  0  0  0  0  0  0  0  0  0  0  0
  153.5433  139.9876  160.1743 H   0  0  0  0  0  0  0  0  0  0  0  0
  154.2122  141.4194  160.9421 H   0  0  0  0  0  0  0  0  0  0  0  0
  1  2  1  0  0  0  0
  1 20  1  0  0  0  0
  1 21  1  0  0  0  0
  1 22  1  0  0  0  0
  2  7  1  0  0  0  0
  2  3  2  0  0  0  0
  3  4  1  0  0  0  0
  3 23  1  0  0  0  0
  4  5  2  0  0  0  0
  4 24  1  0  0  0  0
  5  6  1  0  0  0  0
  5 25  1  0  0  0  0
  6  7  2  0  0  0  0
  6 26  1  0  0  0  0
  7  8  1  0  0  0  0
  8  9  1  0  0  0  0
  8 10  1  0  0  0  0
  8 27  1  0  0  0  0
  9 28  1  0  0  0  0
 10 11  1  0  0  0  0
 10 29  1  0  0  0  0
 10 30  1  0  0  0  0
 11 18  1  0  0  0  0
 11 12  1  0  0  0  0
 12 13  2  0  0  0  0
 12 31  1  0  0  0  0
 13 14  1  0  0  0  0
 14 15  1  0  0  0  0
 14 16  2  0  0  0  0
 15 32  1  0  0  0  0
 15 33  1  0  0  0  0
 15 34  1  0  0  0  0
 16 17  1  0  0  0  0
 16 18  1  0  0  0  0
 17 35  1  0  0  0  0
 17 36  1  0  0  0  0
 17 37  1  0  0  0  0
 18 19  2  0  0  0  0
M  END
> <s_m_source_file>
AV-unprocessed.smi

> <i_m_source_file_index>
2283

> <i_lp_mmshare_version>
43012

> <i_f3d_flags>
0

> <s_epik_input>
W0NIM11jMVtjSF1bY0hdW2NIXVtjSF1jMVtDQEhdKFtPSF0pW0NIMl1uMltjSF1uYyhbQ0gzXSljKFtDSDNdKWMyPU8=

> <s_epik_cmdline>
J2VwaWtfcHl0aG9uJywgJy1waCcsICc3LjAnLCAnLXRuJywgJzgnLCAnLW1hJywgJzIwMCcsICctbWV0YWxfYmluZGluZycsICctaW1hZScsICc8aW5maWxlLm1hZT4nLCAnLW9tYWUnLCAnPG91dGZpbGUubWFlPic=

> <r_lp_tautomer_probability>
1

> <r_epik_Ionization_Penalty>
5.07259e-05

> <r_epik_Ionization_Penalty_Charging>
7.56727e-08

> <r_epik_Ionization_Penalty_Neutral>
5.06502e-05

> <r_epik_State_Penalty>
-0

> <r_epik_Charging_Adjusted_Penalty>
7.56727e-08

> <i_epik_Tot_Q>
0

> <i_epik_Tot_abs_Q>
0

> <r_epik_Metal_State_Penalty>
-0

> <b_epik_Metal_Only>
0

> <s_lp_Force_Field>
OPLS_2005

> <r_lp_Energy>
21.1785

> <b_lp_Chiralities_Consistent>
1

> <s_lp_Variant>
AV-unprocessed.smi:2283-2

> <Gold.Version>
5.8.1

> <Gold.Id.Protein>
6NUR|6NUR_protein|mol2

> <Gold.PLP.Fitness>
40.4963

> <Gold.PLP.PLP>
-35.0219

> <Gold.PLP.part.hbond>
-1.0000

> <Gold.PLP.part.metal>
0.0000

> <Gold.PLP.part.buried>
1.6653

> <Gold.PLP.part.nonpolar>
-34.8059

> <Gold.PLP.part.repulsive>
0.0543

> <Gold.PLP.ligand.clash>
0.0000

> <Gold.PLP.ligand.torsion>
0.2419

> <Gold.PLP.Chemscore.Hbond>
0.9833

> <Gold.PLP.Chemscore.CHOScore>
1.0000

> <Gold.PLP.Chemscore.Metal>
0.0000

> <Gold.Chemscore.Hbonds>
donor molecule, donor type, donor heavy atom, donor atom, acceptor molecule, acceptor atom, score
      P1  H  7997  8008       L1    19  0.94
      L1  C    12    31       P1  8028  1.00

> <Gold.PLP.Chemscore.Internal.Correction>
0.0083

> <Gold.Rescore>
     Score         DG    S(hbond)    S(metal)    S(lipo)     H(rot)  DE(clash)    DE(int)     intcor
     14.04     -14.45       0.93        0.00      91.96       1.91       0.12       0.30       ----

> <Gold.Chemscore.Fitness>
14.0352

> <Gold.Chemscore.DG>
-14.4501

> <Gold.Chemscore.ZeroCoef>
-5.4800

> <Gold.Chemscore.Hbond>
0.9253

> <Gold.Chemscore.Metal>
0.0000

> <Gold.Chemscore.Lipo>
91.9594

> <Gold.Chemscore.Internal_Hbond>
0.0000

> <Gold.Chemscore.DEClash>
0.1177

> <Gold.Chemscore.DEInternal>
0.2971

> <Gold.Chemscore.Rot>
1.9061

> <Gold.Chemscore.Internal.Correction>
   9.000000E+99

> <Gold.Chemscore.Hbonds>
donor molecule, donor type, donor heavy atom, donor atom, acceptor molecule, acceptor atom, score
      P1  H  7997  8008       L1    19  0.91

> <Gold.Chemscore.Hbond.Weighted>
-3.0906

> <Gold.Chemscore.Metal.Weighted>
-0.0000

> <Gold.Chemscore.Lipo.Weighted>
-10.7592

> <Gold.Chemscore.Internal_Hbond.Weighted>
0.0000

> <Gold.Chemscore.DEClash.Weighted>
0.1177

> <Gold.Chemscore.DEInternal.Weighted>
0.2971

> <Gold.Chemscore.Rot.Weighted>
4.8797

> <Gold.Chemscore.Internal.Correction.Weighted>
   9.000000E+99

> <Gold.Protein.RotatedTorsions>
[ 6907 6896 6895 6894 ] final   43.20 input  -60.11 | X-H torsion
[ 7974 7965 7964 7962 ] final -115.17 input  175.53 | X-H torsion
[ 8008 7997 7996 7995 ] final  -68.15 input   59.86 | X-H torsion
[ 10167 10162 10161 10158 ] final  -77.07 input  -65.29 | X-H torsion
[ 10718 10713 10712 10709 ] final  -79.59 input   66.30 | X-H torsion
[ 10763 10752 10751 10750 ] final  157.70 input  -60.55 | X-H torsion
[ 11005 11000 10999 10996 ] final  -27.55 input  -57.11 | X-H torsion

> <Gold.Protein.ActiveResidues>
 VAL166  LYS551  ARG553  GLY616  TRP617  ASP618  TYR619  PRO620  LYS621  CYS622 
 ASP623  PHE694  ASN695  SER759  ASP760  ASP761  ALA762  ILE779  LEU786  VAL792 
 PHE793  MET794  SER795  GLU796  ALA797  LYS798  CYS799  TRP800  GLU811  SER814 

> <Gold.Protein.RotatedAtoms>
  152.2174  134.8445  160.0489 H   0  0  0  0  0  0  0  0  0  0  0  0  # atno 6907 bound_to 6896
  151.9241  133.3588  159.3916 H   0  0  0  0  0  0  0  0  0  0  0  0  # atno 6908 bound_to 6896
  150.6991  134.4529  159.5389 H   0  0  0  0  0  0  0  0  0  0  0  0  # atno 6909 bound_to 6896
  145.1116  140.8615  143.3867 H   0  0  0  0  0  0  0  0  0  0  0  0  # atno 7974 bound_to 7965
  154.4848  140.0878  156.7462 H   0  0  0  0  0  0  0  0  0  0  0  0  # atno 8008 bound_to 7997
  155.4377  140.3452  155.4268 H   0  0  0  0  0  0  0  0  0  0  0  0  # atno 8009 bound_to 7997
  156.1246  140.1484  156.9144 H   0  0  0  0  0  0  0  0  0  0  0  0  # atno 8010 bound_to 7997
  140.4802  143.2404  151.8070 H   0  0  0  0  0  0  0  0  0  0  0  0  # atno 10167 bound_to 10162
  156.0089  130.4550  150.3671 H   0  0  0  0  0  0  0  0  0  0  0  0  # atno 10718 bound_to 10713
  154.2044  135.2789  155.2980 H   0  0  0  0  0  0  0  0  0  0  0  0  # atno 10763 bound_to 10752
  154.5829  135.5584  153.7206 H   0  0  0  0  0  0  0  0  0  0  0  0  # atno 10764 bound_to 10752
  153.0080  135.6349  154.2183 H   0  0  0  0  0  0  0  0  0  0  0  0  # atno 10765 bound_to 10752
  140.9129  133.7449  156.0695 H   0  0  0  0  0  0  0  0  0  0  0  0  # atno 11005 bound_to 11000
  145.0841  139.2938  143.5768 LP  0  0  0  0  0  0  0  0  0  0  0  0  # atno 17320 bound_to 7965
  146.3526  140.0357  142.8647 LP  0  0  0  0  0  0  0  0  0  0  0  0  # atno 17321 bound_to 7965
  139.4832  144.4782  151.9340 LP  0  0  0  0  0  0  0  0  0  0  0  0  # atno 17342 bound_to 10162
  140.3867  144.2667  150.5903 LP  0  0  0  0  0  0  0  0  0  0  0  0  # atno 17343 bound_to 10162
  157.1757  131.0380  151.2773 LP  0  0  0  0  0  0  0  0  0  0  0  0  # atno 17370 bound_to 10713
  157.4190  130.7427  149.6898 LP  0  0  0  0  0  0  0  0  0  0  0  0  # atno 17371 bound_to 10713
  140.8087  134.3424  157.5418 LP  0  0  0  0  0  0  0  0  0  0  0  0  # atno 17394 bound_to 11000
  139.8760  134.9241  156.3341 LP  0  0  0  0  0  0  0  0  0  0  0  0  # atno 17395 bound_to 11000

$$$$
