AV-unprocessed.smi:2143|AV-procd|sdf|8728|dock10
  -GOLD-   2272011493D 1   1.00000     0.00000
 Structure written by MMmdl.
 44 45  0  0  0  0  0  0  0  0  1 V2000
  151.3133  145.6214  160.6550 C   0  0  0  0  0  0  0  0  0  0  0  0
  151.5004  144.1182  160.3895 C   0  0  2  0  0  0  0  0  0  0  0  0
  152.7723  143.5709  161.0688 C   0  0  0  0  0  0  0  0  0  0  0  0
  152.9000  142.0506  160.8842 C   0  0  0  0  0  0  0  0  0  0  0  0
  152.8369  141.6535  159.4015 C   0  0  0  0  0  0  0  0  0  0  0  0
  151.5610  142.1993  158.7318 C   0  0  2  0  0  0  0  0  0  0  0  0
  151.5127  141.7727  157.3349 N   0  0  0  0  0  0  0  0  0  0  0  0
  151.5874  140.5034  156.9073 C   0  0  0  0  0  0  0  0  0  0  0  0
  151.6949  139.5397  157.6672 O   0  0  0  0  0  0  0  0  0  0  0  0
  151.5034  140.3021  155.3882 C   0  0  0  0  0  0  0  0  0  0  0  0
  150.2442  139.6818  154.9560 N   0  0  0  0  0  0  0  0  0  0  0  0
  150.0301  138.3348  155.1854 C   0  0  0  0  0  0  0  0  0  0  0  0
  148.9103  137.6830  154.8034 C   0  0  0  0  0  0  0  0  0  0  0  0
  147.8353  138.3838  154.1116 C   0  0  0  0  0  0  0  0  0  0  0  0
  146.8082  137.8240  153.7266 O   0  0  0  0  0  0  0  0  0  0  0  0
  148.0727  139.7638  153.9040 N   0  0  0  0  0  0  0  0  0  0  0  0
  147.0679  140.5381  153.2046 C   0  0  0  0  0  0  0  0  0  0  0  0
  149.2540  140.4359  154.2907 C   0  0  0  0  0  0  0  0  0  0  0  0
  149.4304  141.6339  154.0552 O   0  0  0  0  0  0  0  0  0  0  0  0
  151.4483  143.7417  158.8845 C   0  0  2  0  0  0  0  0  0  0  0  0
  152.4687  144.5156  158.0175 C   0  0  0  0  0  0  0  0  0  0  0  0
  152.1666  146.2043  160.3084 H   0  0  0  0  0  0  0  0  0  0  0  0
  151.2012  145.8153  161.7220 H   0  0  0  0  0  0  0  0  0  0  0  0
  150.4208  146.0015  160.1572 H   0  0  0  0  0  0  0  0  0  0  0  0
  150.6511  143.6235  160.8633 H   0  0  0  0  0  0  0  0  0  0  0  0
  153.6568  144.0660  160.6673 H   0  0  0  0  0  0  0  0  0  0  0  0
  152.7523  143.8033  162.1342 H   0  0  0  0  0  0  0  0  0  0  0  0
  153.8339  141.6996  161.3240 H   0  0  0  0  0  0  0  0  0  0  0  0
  152.0969  141.5507  161.4274 H   0  0  0  0  0  0  0  0  0  0  0  0
  153.7240  142.0217  158.8849 H   0  0  0  0  0  0  0  0  0  0  0  0
  152.8649  140.5664  159.3177 H   0  0  0  0  0  0  0  0  0  0  0  0
  150.7120  141.7444  159.2463 H   0  0  0  0  0  0  0  0  0  0  0  0
  151.4173  142.5001  156.6411 H   0  0  0  0  0  0  0  0  0  0  0  0
  151.6209  141.2755  154.9100 H   0  0  0  0  0  0  0  0  0  0  0  0
  152.3507  139.7035  155.0486 H   0  0  0  0  0  0  0  0  0  0  0  0
  150.8002  137.7698  155.6905 H   0  0  0  0  0  0  0  0  0  0  0  0
  148.8101  136.6273  155.0090 H   0  0  0  0  0  0  0  0  0  0  0  0
  147.0063  141.5276  153.6602 H   0  0  0  0  0  0  0  0  0  0  0  0
  146.0911  140.0626  153.2972 H   0  0  0  0  0  0  0  0  0  0  0  0
  147.3830  140.5960  152.1617 H   0  0  0  0  0  0  0  0  0  0  0  0
  150.4608  144.0297  158.5212 H   0  0  0  0  0  0  0  0  0  0  0  0
  153.4968  144.3184  158.3189 H   0  0  0  0  0  0  0  0  0  0  0  0
  152.3085  145.5915  158.0774 H   0  0  0  0  0  0  0  0  0  0  0  0
  152.3804  144.2526  156.9636 H   0  0  0  0  0  0  0  0  0  0  0  0
  1  2  1  0  0  0  0
  1 22  1  0  0  0  0
  1 23  1  0  0  0  0
  1 24  1  0  0  0  0
  2 20  1  0  0  0  0
  2  3  1  0  0  0  0
  2 25  1  0  0  0  0
  3  4  1  0  0  0  0
  3 26  1  0  0  0  0
  3 27  1  0  0  0  0
  4  5  1  0  0  0  0
  4 28  1  0  0  0  0
  4 29  1  0  0  0  0
  5  6  1  0  0  0  0
  5 30  1  0  0  0  0
  5 31  1  0  0  0  0
  6  7  1  0  0  0  0
  6 20  1  0  0  0  0
  6 32  1  0  0  0  0
  7  8  1  0  0  0  0
  7 33  1  0  0  0  0
  8  9  2  0  0  0  0
  8 10  1  0  0  0  0
 10 11  1  0  0  0  0
 10 34  1  0  0  0  0
 10 35  1  0  0  0  0
 11 18  1  0  0  0  0
 11 12  1  0  0  0  0
 12 13  2  0  0  0  0
 12 36  1  0  0  0  0
 13 14  1  0  0  0  0
 13 37  1  0  0  0  0
 14 15  2  0  0  0  0
 14 16  1  0  0  0  0
 16 17  1  0  0  0  0
 16 18  1  0  0  0  0
 17 38  1  0  0  0  0
 17 39  1  0  0  0  0
 17 40  1  0  0  0  0
 18 19  2  0  0  0  0
 20 21  1  0  0  0  0
 20 41  1  0  0  0  0
 21 42  1  0  0  0  0
 21 43  1  0  0  0  0
 21 44  1  0  0  0  0
M  END
> <s_m_source_file>
AV-unprocessed.smi

> <i_m_source_file_index>
2143

> <i_lp_mmshare_version>
43012

> <i_f3d_flags>
0

> <s_epik_input>
W0NIM11bQ0BASF0xW0NIMl1bQ0gyXVtDSDJdW0NASF0oW0NASF0xW0NIM10pW05IXUMoPU8pW0NIMl1uMltjSF1bY0hdYyg9TyluKFtDSDNdKWMyPU8=

> <s_epik_cmdline>
J2VwaWtfcHl0aG9uJywgJy1waCcsICc3LjAnLCAnLXRuJywgJzgnLCAnLW1hJywgJzIwMCcsICctbWV0YWxfYmluZGluZycsICctaW1hZScsICc8aW5maWxlLm1hZT4nLCAnLW9tYWUnLCAnPG91dGZpbGUubWFlPic=

> <r_lp_tautomer_probability>
1

> <r_epik_Ionization_Penalty>
3.18445e-08

> <r_epik_Ionization_Penalty_Charging>
1.27977e-08

> <r_epik_Ionization_Penalty_Neutral>
1.90469e-08

> <r_epik_State_Penalty>
-0

> <r_epik_Charging_Adjusted_Penalty>
1.27977e-08

> <i_epik_Tot_Q>
0

> <i_epik_Tot_abs_Q>
0

> <r_epik_Metal_State_Penalty>
-0

> <b_epik_Metal_Only>
0

> <s_lp_Force_Field>
OPLS_2005

> <r_lp_Energy>
21.2837

> <b_lp_Chiralities_Consistent>
1

> <s_lp_Variant>
AV-unprocessed.smi:2143-7

> <Gold.Version>
5.8.1

> <Gold.Id.Protein>
6NUR|6NUR_protein|mol2

> <Gold.PLP.Fitness>
43.4033

> <Gold.PLP.PLP>
-41.5439

> <Gold.PLP.part.hbond>
-2.0000

> <Gold.PLP.part.metal>
0.0000

> <Gold.PLP.part.buried>
-1.2420

> <Gold.PLP.part.nonpolar>
-37.9147

> <Gold.PLP.part.repulsive>
0.4058

> <Gold.PLP.ligand.clash>
0.0000

> <Gold.PLP.ligand.torsion>
0.2614

> <Gold.PLP.Chemscore.Hbond>
0.7891

> <Gold.PLP.Chemscore.CHOScore>
0.0000

> <Gold.PLP.Chemscore.Metal>
0.0000

> <Gold.Chemscore.Hbonds>
donor molecule, donor type, donor heavy atom, donor atom, acceptor molecule, acceptor atom, score
      P1  H  7989  7998       L1    19  0.01
      P1  H  8011  8017       L1    19  0.59

> <Gold.PLP.Chemscore.Internal.Correction>
0.0150

> <Gold.Rescore>
     Score         DG    S(hbond)    S(metal)    S(lipo)     H(rot)  DE(clash)    DE(int)     intcor
     15.61     -17.48       0.85        0.00     111.44       1.51       0.81       1.05       ----

> <Gold.Chemscore.Fitness>
15.6106

> <Gold.Chemscore.DG>
-17.4767

> <Gold.Chemscore.ZeroCoef>
-5.4800

> <Gold.Chemscore.Hbond>
0.8477

> <Gold.Chemscore.Metal>
0.0000

> <Gold.Chemscore.Lipo>
111.4438

> <Gold.Chemscore.Internal_Hbond>
0.0000

> <Gold.Chemscore.DEClash>
0.8117

> <Gold.Chemscore.DEInternal>
1.0543

> <Gold.Chemscore.Rot>
1.5131

> <Gold.Chemscore.Internal.Correction>
   9.000000E+99

> <Gold.Chemscore.Hbonds>
donor molecule, donor type, donor heavy atom, donor atom, acceptor molecule, acceptor atom, score
      P1  H  8011  8017       L1    19  0.60

> <Gold.Chemscore.Hbond.Weighted>
-2.8312

> <Gold.Chemscore.Metal.Weighted>
-0.0000

> <Gold.Chemscore.Lipo.Weighted>
-13.0389

> <Gold.Chemscore.Internal_Hbond.Weighted>
0.0000

> <Gold.Chemscore.DEClash.Weighted>
0.8117

> <Gold.Chemscore.DEInternal.Weighted>
1.0543

> <Gold.Chemscore.Rot.Weighted>
3.8734

> <Gold.Chemscore.Internal.Correction.Weighted>
   9.000000E+99

> <Gold.Protein.RotatedTorsions>
[ 6907 6896 6895 6894 ] final  170.53 input  -60.11 | X-H torsion
[ 7974 7965 7964 7962 ] final  -85.04 input  175.53 | X-H torsion
[ 8008 7997 7996 7995 ] final -164.72 input   59.86 | X-H torsion
[ 10167 10162 10161 10158 ] final  109.29 input  -65.29 | X-H torsion
[ 10718 10713 10712 10709 ] final -178.46 input   66.30 | X-H torsion
[ 10763 10752 10751 10750 ] final  -97.74 input  -60.55 | X-H torsion
[ 11005 11000 10999 10996 ] final  -46.83 input  -57.11 | X-H torsion

> <Gold.Protein.ActiveResidues>
 VAL166  LYS551  ARG553  GLY616  TRP617  ASP618  TYR619  PRO620  LYS621  CYS622 
 ASP623  PHE694  ASN695  SER759  ASP760  ASP761  ALA762  ILE779  LEU786  VAL792 
 PHE793  MET794  SER795  GLU796  ALA797  LYS798  CYS799  TRP800  GLU811  SER814 

> <Gold.Protein.RotatedAtoms>
  151.8146  133.3386  159.3565 H   0  0  0  0  0  0  0  0  0  0  0  0  # atno 6907 bound_to 6896
  150.7315  134.5632  159.5862 H   0  0  0  0  0  0  0  0  0  0  0  0  # atno 6908 bound_to 6896
  152.3050  134.7567  160.0400 H   0  0  0  0  0  0  0  0  0  0  0  0  # atno 6909 bound_to 6896
  145.4986  140.9548  143.1772 H   0  0  0  0  0  0  0  0  0  0  0  0  # atno 7974 bound_to 7965
  155.8396  140.0946  157.1742 H   0  0  0  0  0  0  0  0  0  0  0  0  # atno 8008 bound_to 7997
  154.3981  140.1403  156.3774 H   0  0  0  0  0  0  0  0  0  0  0  0  # atno 8009 bound_to 7997
  155.8078  140.3450  155.5442 H   0  0  0  0  0  0  0  0  0  0  0  0  # atno 8010 bound_to 7997
  139.6778  144.7121  151.1569 H   0  0  0  0  0  0  0  0  0  0  0  0  # atno 10167 bound_to 10162
  156.8446  130.9698  151.3097 H   0  0  0  0  0  0  0  0  0  0  0  0  # atno 10718 bound_to 10713
  154.7354  135.5035  153.9032 H   0  0  0  0  0  0  0  0  0  0  0  0  # atno 10763 bound_to 10752
  153.0990  135.6680  153.9717 H   0  0  0  0  0  0  0  0  0  0  0  0  # atno 10764 bound_to 10752
  153.9508  135.3058  155.3418 H   0  0  0  0  0  0  0  0  0  0  0  0  # atno 10765 bound_to 10752
  141.0603  133.6711  156.3210 H   0  0  0  0  0  0  0  0  0  0  0  0  # atno 11005 bound_to 11000
  144.7793  139.6561  143.7161 LP  0  0  0  0  0  0  0  0  0  0  0  0  # atno 17320 bound_to 7965
  146.2240  139.5688  142.9599 LP  0  0  0  0  0  0  0  0  0  0  0  0  # atno 17321 bound_to 7965
  140.7642  143.5744  150.8961 LP  0  0  0  0  0  0  0  0  0  0  0  0  # atno 17342 bound_to 10162
  139.9414  143.6377  152.3052 LP  0  0  0  0  0  0  0  0  0  0  0  0  # atno 17343 bound_to 10162
  157.6337  130.8749  149.9320 LP  0  0  0  0  0  0  0  0  0  0  0  0  # atno 17370 bound_to 10713
  156.0862  130.3668  150.0483 LP  0  0  0  0  0  0  0  0  0  0  0  0  # atno 17371 bound_to 10713
  140.5882  134.5677  157.5494 LP  0  0  0  0  0  0  0  0  0  0  0  0  # atno 17394 bound_to 11000
  139.9426  134.7758  156.0639 LP  0  0  0  0  0  0  0  0  0  0  0  0  # atno 17395 bound_to 11000

$$$$
