#       Name:                AV-unprocessed.smi:1051
#       Creating user name   scv26
#       Creation time:       Fri Mar 27 03:11:27 2020


#       File generated by GOLD software.
#

@<TRIPOS>MOLECULE
AV-unprocessed.smi:1051
    53    55     1
SMALL
NO_CHARGES


@<TRIPOS>ATOM
      1 ****        -7.0821   2.9425  -0.0060 C.3            1 S1                 0.0000
      2 ****        -5.5588   2.9152   0.1098 C.2            1 S1                 0.0000
      3 ****        -4.9373   3.9675  -0.0336 O.2            1 S1                 0.0000
      4 ****        -4.9058   1.6051   0.3931 C.ar           1 S1                 0.0000
      5 ****        -5.6575   0.4164   0.5409 C.ar           1 S1                 0.0000
      6 ****        -5.0104  -0.8040   0.8075 C.ar           1 S1                 0.0000
      7 ****        -3.6098  -0.8539   0.9303 C.ar           1 S1                 0.0000
      8 ****        -2.8383   0.3251   0.7866 C.ar           1 S1                 0.0000
      9 ****        -1.4646   0.3699   0.8925 O.3            1 S1                 0.0000
     10 ****        -0.7692  -0.8389   1.1762 C.3            1 S1                 0.0000
     11 ****         0.7448  -0.5757   1.2465 C.3            1 S1                 0.0000
     12 ****         1.0208   0.0351   2.4909 O.3            1 S1                 0.0000
     13 ****         1.2629   0.3030   0.0899 C.3            1 S1                 0.0000
     14 ****         2.6755   0.0504  -0.1865 N.am           1 S1                 0.0000
     15 ****         3.7311   0.7108   0.3452 C.2            1 S1                 0.0000
     16 ****         3.6704   1.6367   1.1539 O.2            1 S1                 0.0000
     17 ****         4.8633   0.1631  -0.1552 N.am           1 S1                 0.0000
     18 ****         6.2350   0.5546   0.1455 C.3            1 S1                 0.0000
     19 ****         4.5239  -0.8915  -1.0120 C.ar           1 S1                 0.0000
     20 ****         5.3287  -1.7735  -1.7532 C.ar           1 S1                 0.0000
     21 ****         4.6667  -2.7535  -2.5296 C.ar           1 S1                 0.0000
     22 ****         3.2496  -2.8317  -2.5475 C.ar           1 S1                 0.0000
     23 ****         2.4639  -1.9307  -1.7909 C.ar           1 S1                 0.0000
     24 ****         3.1471  -0.9650  -1.0312 C.ar           1 S1                 0.0000
     25 ****        -3.4986   1.5418   0.5179 C.ar           1 S1                 0.0000
     26 ****        -7.4149   2.3005  -0.8216 H              1 S1                 0.0000
     27 ****        -7.4314   3.9558  -0.2062 H              1 S1                 0.0000
     28 ****        -7.5422   2.6010   0.9214 H              1 S1                 0.0000
     29 ****        -6.7337   0.4160   0.4539 H              1 S1                 0.0000
     30 ****        -5.5921  -1.7073   0.9189 H              1 S1                 0.0000
     31 ****        -3.1522  -1.8096   1.1350 H              1 S1                 0.0000
     32 ****        -1.1205  -1.2877   2.1072 H              1 S1                 0.0000
     33 ****        -0.9610  -1.5523   0.3729 H              1 S1                 0.0000
     34 ****         1.2513  -1.5420   1.2370 H              1 S1                 0.0000
     35 ****         1.9491   0.2051   2.5443 H              1 S1                 0.0000
     36 ****         0.7038   0.0815  -0.8199 H              1 S1                 0.0000
     37 ****         1.0866   1.3614   0.2905 H              1 S1                 0.0000
     38 ****         6.7978   0.7001  -0.7769 H              1 S1                 0.0000
     39 ****         6.7285  -0.2232   0.7292 H              1 S1                 0.0000
     40 ****         6.2797   1.4850   0.7133 H              1 S1                 0.0000
     41 ****         6.4065  -1.7095  -1.7314 H              1 S1                 0.0000
     42 ****         5.2471  -3.4517  -3.1146 H              1 S1                 0.0000
     43 ****         2.7648  -3.5894  -3.1457 H              1 S1                 0.0000
     44 ****         1.3855  -1.9878  -1.7983 H              1 S1                 0.0000
     45 ****        -2.9028   2.4369   0.4095 H              1 S1                 0.0000
     46 ****        -5.4297   4.8173  -0.2218 LP             1 S1                 0.0000
     47 ****        -3.9399   3.9728   0.0381 LP             1 S1                 0.0000
     48 ****        -1.2451   1.0161   1.6234 LP             1 S1                 0.0000
     49 ****        -1.1120   0.7171   0.0236 LP             1 S1                 0.0000
     50 ****         0.7469  -0.5755   3.2340 LP             1 S1                 0.0000
     51 ****         0.5161   0.8953   2.5632 LP             1 S1                 0.0000
     52 ****         2.7812   1.9630   1.4746 LP             1 S1                 0.0000
     53 ****         4.5103   2.0626   1.4903 LP             1 S1                 0.0000
@<TRIPOS>BOND
    1    1    2 1     
    2    1   26 1     
    3    1   27 1     
    4    1   28 1     
    5    2    3 2     
    6    2    4 1     
    7    4   25 ar    
    8    4    5 ar    
    9    5    6 ar    
   10    5   29 1     
   11    6    7 ar    
   12    6   30 1     
   13    7    8 ar    
   14    7   31 1     
   15    8    9 1     
   16    8   25 ar    
   17    9   10 1     
   18   10   11 1     
   19   10   32 1     
   20   10   33 1     
   21   11   12 1     
   22   11   13 1     
   23   11   34 1     
   24   12   35 1     
   25   13   14 1     
   26   13   36 1     
   27   13   37 1     
   28   14   24 1     
   29   14   15 am    
   30   15   16 2     
   31   15   17 am    
   32   17   18 1     
   33   17   19 1     
   34   18   38 1     
   35   18   39 1     
   36   18   40 1     
   37   19   24 ar    
   38   19   20 ar    
   39   20   21 ar    
   40   20   41 1     
   41   21   22 ar    
   42   21   42 1     
   43   22   23 ar    
   44   22   43 1     
   45   23   24 ar    
   46   23   44 1     
   47   25   45 1     
   48    3   46 1     
   49    3   47 1     
   50    9   48 1     
   51    9   49 1     
   52   12   50 1     
   53   12   51 1     
   54   16   52 1     
   55   16   53 1     
@<TRIPOS>SUBSTRUCTURE
      1 S1             1
@<TRIPOS>SET
LONE_PAIRS      STATIC     ATOMS    <user>   **** ""
8 46 47 48 49 50 51 52 53
DONOR_HYDROGENS      STATIC     ATOMS    <user>   **** ""
1 35
ATOM$BLUE        STATIC     ATOMS    COLORGROUP SYSTEM
8 46 47 48 49 50 51 52 53
ATOM$RED        STATIC     ATOMS    COLORGROUP SYSTEM
1 35
