#       Name:                AV-unprocessed.smi:1608
#       Creating user name   scv26
#       Creation time:       Fri Mar 27 07:12:35 2020


#       File generated by GOLD software.
#

@<TRIPOS>MOLECULE
AV-unprocessed.smi:1608
    46    47     1
SMALL
NO_CHARGES


@<TRIPOS>ATOM
      1 ****        -6.5316   1.2974   1.1640 C.3            1 S1                 0.0000
      2 ****        -5.2215   1.8564   0.8214 N.am           1 S1                 0.0000
      3 ****        -4.1425   0.9632   0.6839 C.2            1 S1                 0.0000
      4 ****        -2.8963   1.3713   0.3832 C.2            1 S1                 0.0000
      5 ****        -1.8951   0.3963   0.2730 N.am           1 S1                 0.0000
      6 ****        -0.5637   0.5602   0.1677 C.2            1 S1                 0.0000
      7 ****         0.0353   1.6349   0.1927 O.2            1 S1                 0.0000
      8 ****         0.0563  -0.6229   0.0486 N.am           1 S1                 0.0000
      9 ****         1.5000  -0.8118  -0.0569 C.3            1 S1                 0.0000
     10 ****         2.1497  -0.8152   1.3369 C.3            1 S1                 0.0000
     11 ****         3.6548  -1.0740   1.2081 C.3            1 S1                 0.0000
     12 ****         3.9336  -2.3819   0.4474 C.3            1 S1                 0.0000
     13 ****         3.2447  -2.4104  -0.8589 N.pl3          1 S1                 0.0000
     14 ****         4.1342  -2.0818  -2.3183 S.o2           1 S1                 0.0000
     15 ****         4.3542  -0.2554  -2.3123 C.3            1 S1                 0.0000
     16 ****         5.4606  -2.7032  -2.1845 O.2            1 S1                 0.0000
     17 ****         3.2752  -2.4366  -3.4584 O.2            1 S1                 0.0000
     18 ****         1.7959  -2.1306  -0.7982 C.3            1 S1                 0.0000
     19 ****        -2.7043   2.7997   0.1780 C.2            1 S1                 0.0000
     20 ****        -3.7341   3.6597   0.3042 C.2            1 S1                 0.0000
     21 ****        -5.0822   3.2025   0.6506 C.2            1 S1                 0.0000
     22 ****        -6.0285   3.9799   0.7764 O.2            1 S1                 0.0000
     23 ****        -6.5046   0.2171   1.3098 H              1 S1                 0.0000
     24 ****        -7.2527   1.5019   0.3715 H              1 S1                 0.0000
     25 ****        -6.9080   1.7389   2.0880 H              1 S1                 0.0000
     26 ****        -4.3915  -0.0756   0.8480 H              1 S1                 0.0000
     27 ****        -2.2294  -0.5561   0.2846 H              1 S1                 0.0000
     28 ****        -0.5117  -1.4573   0.0374 H              1 S1                 0.0000
     29 ****         1.9171   0.0117  -0.6367 H              1 S1                 0.0000
     30 ****         1.9806   0.1371   1.8408 H              1 S1                 0.0000
     31 ****         1.6956  -1.5860   1.9612 H              1 S1                 0.0000
     32 ****         4.1274  -0.2348   0.6994 H              1 S1                 0.0000
     33 ****         4.1076  -1.1213   2.1987 H              1 S1                 0.0000
     34 ****         5.0060  -2.5233   0.3155 H              1 S1                 0.0000
     35 ****         3.5829  -3.2282   1.0389 H              1 S1                 0.0000
     36 ****         4.9211   0.0369  -3.1958 H              1 S1                 0.0000
     37 ****         4.9046   0.0497  -1.4240 H              1 S1                 0.0000
     38 ****         3.3838   0.2369  -2.3385 H              1 S1                 0.0000
     39 ****         1.3106  -2.9614  -0.2840 H              1 S1                 0.0000
     40 ****         1.3756  -2.1057  -1.8036 H              1 S1                 0.0000
     41 ****        -1.7458   3.2085  -0.0973 H              1 S1                 0.0000
     42 ****        -3.5648   4.7136   0.1387 H              1 S1                 0.0000
     43 ****        -0.4740   2.4888   0.2992 LP             1 S1                 0.0000
     44 ****         1.0314   1.6543   0.1064 LP             1 S1                 0.0000
     45 ****        -6.9353   3.6299   1.0111 LP             1 S1                 0.0000
     46 ****        -5.8903   4.9614   0.6438 LP             1 S1                 0.0000
@<TRIPOS>BOND
    1    1    2 1     
    2    1   23 1     
    3    1   24 1     
    4    1   25 1     
    5    2   21 am    
    6    2    3 1     
    7    3    4 2     
    8    3   26 1     
    9    4    5 1     
   10    4   19 1     
   11    5    6 am    
   12    5   27 1     
   13    6    7 2     
   14    6    8 am    
   15    8    9 1     
   16    8   28 1     
   17    9   18 1     
   18    9   10 1     
   19    9   29 1     
   20   10   11 1     
   21   10   30 1     
   22   10   31 1     
   23   11   12 1     
   24   11   32 1     
   25   11   33 1     
   26   12   13 1     
   27   12   34 1     
   28   12   35 1     
   29   13   14 1     
   30   13   18 1     
   31   14   15 1     
   32   14   16 2     
   33   14   17 2     
   34   15   36 1     
   35   15   37 1     
   36   15   38 1     
   37   18   39 1     
   38   18   40 1     
   39   19   20 2     
   40   19   41 1     
   41   20   21 1     
   42   20   42 1     
   43   21   22 2     
   44    7   43 1     
   45    7   44 1     
   46   22   45 1     
   47   22   46 1     
@<TRIPOS>SUBSTRUCTURE
      1 S1             1
@<TRIPOS>SET
LONE_PAIRS      STATIC     ATOMS    <user>   **** ""
6 43 44 16 17 45 46
DONOR_HYDROGENS      STATIC     ATOMS    <user>   **** ""
2 27 28
ATOM$BLUE        STATIC     ATOMS    COLORGROUP SYSTEM
6 43 44 16 17 45 46
ATOM$RED        STATIC     ATOMS    COLORGROUP SYSTEM
2 27 28
