AV-unprocessed.smi:1435|AV-procd|sdf|5858|dock2
  -GOLD-   22720 5533D 1   1.00000     0.00000
 Structure written by MMmdl.
 44 45  0  0  0  0  0  0  0  0  2 V2000
  148.9388  135.7484  156.5761 O   0  0  0  0  0  0  0  0  0  0  0  0
  149.0644  136.0424  155.3873 C   0  0  0  0  0  0  0  0  0  0  0  0
  149.3423  137.4903  154.9799 C   0  0  0  0  0  0  0  0  0  0  0  0
  150.8358  137.7501  154.7148 C   0  0  0  0  0  0  0  0  0  0  0  0
  151.3315  139.4618  155.2083 S   0  0  0  0  0  0  0  0  0  0  0  0
  152.8006  139.5294  155.2269 O   0  0  0  0  0  0  0  0  0  0  0  0
  150.5804  140.4153  154.3768 O   0  0  0  0  0  0  0  0  0  0  0  0
  150.7107  139.5601  156.9534 C   0  0  0  0  0  0  0  0  0  0  0  0
  149.7476  140.7379  157.1514 C   0  0  0  0  0  0  0  0  0  0  0  0
  150.6172  141.9464  157.5300 C   0  0  0  0  0  0  0  0  0  0  0  0
  152.0019  141.3929  157.8972 C   0  0  0  0  0  0  0  0  0  0  0  0
  151.8515  139.8699  157.9263 C   0  0  0  0  0  0  0  0  0  0  0  0
  148.9500  135.1516  154.3909 N   0  0  0  0  0  0  0  0  0  0  0  0
  148.6030  133.7472  154.5662 C   0  0  0  0  0  0  0  0  0  0  0  0
  148.5378  133.0154  153.2151 C   0  0  0  0  0  0  0  0  0  0  0  0
  147.1534  133.0709  152.6004 C   0  0  0  0  0  0  0  0  0  0  0  0
  146.9809  133.4343  151.2467 C   0  0  0  0  0  0  0  0  0  0  0  0
  145.6803  133.4739  150.7023 C   0  0  0  0  0  0  0  0  0  0  0  0
  144.5816  133.1493  151.5244 C   0  0  0  0  0  0  0  0  0  0  0  0
  144.7858  132.8056  152.8150 N   0  3  0  0  0  0  0  0  0  0  0  0
  146.0152  132.7558  153.3737 C   0  0  0  0  0  0  0  0  0  0  0  0
  148.7751  137.6915  154.0708 H   0  0  0  0  0  0  0  0  0  0  0  0
  148.9660  138.1822  155.7348 H   0  0  0  0  0  0  0  0  0  0  0  0
  151.4639  137.0332  155.2435 H   0  0  0  0  0  0  0  0  0  0  0  0
  151.0458  137.6393  153.6513 H   0  0  0  0  0  0  0  0  0  0  0  0
  150.2396  138.6054  157.1881 H   0  0  0  0  0  0  0  0  0  0  0  0
  149.1258  140.9352  156.2786 H   0  0  0  0  0  0  0  0  0  0  0  0
  149.0736  140.5107  157.9783 H   0  0  0  0  0  0  0  0  0  0  0  0
  150.7002  142.6422  156.6942 H   0  0  0  0  0  0  0  0  0  0  0  0
  150.1739  142.4926  158.3634 H   0  0  0  0  0  0  0  0  0  0  0  0
  152.7251  141.6781  157.1324 H   0  0  0  0  0  0  0  0  0  0  0  0
  152.3645  141.7838  158.8483 H   0  0  0  0  0  0  0  0  0  0  0  0
  151.5622  139.5566  158.9302 H   0  0  0  0  0  0  0  0  0  0  0  0
  152.7787  139.3521  157.6791 H   0  0  0  0  0  0  0  0  0  0  0  0
  149.0686  135.4805  153.4434 H   0  0  0  0  0  0  0  0  0  0  0  0
  149.3583  133.2872  155.2040 H   0  0  0  0  0  0  0  0  0  0  0  0
  147.6528  133.6616  155.0963 H   0  0  0  0  0  0  0  0  0  0  0  0
  149.2493  133.4515  152.5124 H   0  0  0  0  0  0  0  0  0  0  0  0
  148.8327  131.9725  153.3392 H   0  0  0  0  0  0  0  0  0  0  0  0
  147.8346  133.6789  150.6311 H   0  0  0  0  0  0  0  0  0  0  0  0
  145.5281  133.7493  149.6687 H   0  0  0  0  0  0  0  0  0  0  0  0
  143.5540  133.1534  151.1913 H   0  0  0  0  0  0  0  0  0  0  0  0
  146.0507  132.4669  154.4144 H   0  0  0  0  0  0  0  0  0  0  0  0
  143.9770  132.5738  153.3922 H   0  0  0  0  0  0  0  0  0  0  0  0
  1  2  2  0  0  0  0
  2  3  1  0  0  0  0
  2 13  1  0  0  0  0
  3  4  1  0  0  0  0
  3 22  1  0  0  0  0
  3 23  1  0  0  0  0
  4  5  1  0  0  0  0
  4 24  1  0  0  0  0
  4 25  1  0  0  0  0
  5  6  2  0  0  0  0
  5  7  2  0  0  0  0
  5  8  1  0  0  0  0
  8 12  1  0  0  0  0
  8  9  1  0  0  0  0
  8 26  1  0  0  0  0
  9 10  1  0  0  0  0
  9 27  1  0  0  0  0
  9 28  1  0  0  0  0
 10 11  1  0  0  0  0
 10 29  1  0  0  0  0
 10 30  1  0  0  0  0
 11 12  1  0  0  0  0
 11 31  1  0  0  0  0
 11 32  1  0  0  0  0
 12 33  1  0  0  0  0
 12 34  1  0  0  0  0
 13 14  1  0  0  0  0
 13 35  1  0  0  0  0
 14 15  1  0  0  0  0
 14 36  1  0  0  0  0
 14 37  1  0  0  0  0
 15 16  1  0  0  0  0
 15 38  1  0  0  0  0
 15 39  1  0  0  0  0
 16 21  1  0  0  0  0
 16 17  2  0  0  0  0
 17 18  1  0  0  0  0
 17 40  1  0  0  0  0
 18 19  2  0  0  0  0
 18 41  1  0  0  0  0
 19 20  1  0  0  0  0
 19 42  1  0  0  0  0
 20 21  2  0  0  0  0
 20 44  1  0  0  0  0
 21 43  1  0  0  0  0
M  CHG  1  20   1
M  END
> <s_m_source_file>
AV-unprocessed.smi

> <i_m_source_file_index>
1435

> <i_lp_mmshare_version>
43012

> <i_f3d_flags>
0

> <s_epik_input>
W0NIMl0xW0NIMl1bQ0gyXVtDSDJdW0NIXTFTKD1PKSg9TylbQ0gyXVtDSDJdQyg9TylbTkhdW0NIMl1bQ0gyXWMyW2NIXVtjSF1bY0hdbltjSF0y

> <s_epik_cmdline>
J2VwaWtfcHl0aG9uJywgJy1waCcsICc3LjAnLCAnLXRuJywgJzgnLCAnLW1hJywgJzIwMCcsICctbWV0YWxfYmluZGluZycsICctaW1hZScsICc8aW5maWxlLm1hZT4nLCAnLW9tYWUnLCAnPG91dGZpbGUubWFlPic=

> <r_epik_Ionization_Penalty>
2.2792

> <r_epik_Ionization_Penalty_Charging>
2.2792

> <r_epik_Ionization_Penalty_Neutral>
6.52611e-08

> <r_epik_State_Penalty>
2.42836

> <r_epik_Charging_Adjusted_Penalty>
4.70756

> <i_epik_Tot_Q>
1

> <i_epik_Tot_abs_Q>
1

> <r_epik_Metal_State_Penalty>
2.44099

> <b_epik_Metal_Only>
0

> <s_lp_Force_Field>
OPLS_2005

> <r_lp_Energy>
17.5712

> <b_lp_Chiralities_Consistent>
1

> <s_lp_Variant>
AV-unprocessed.smi:1435-2

> <Gold.Version>
5.8.1

> <Gold.Id.Protein>
6NUR|6NUR_protein|mol2

> <Gold.PLP.Fitness>
47.4714

> <Gold.PLP.PLP>
-34.1564

> <Gold.PLP.part.hbond>
-4.3397

> <Gold.PLP.part.metal>
0.0000

> <Gold.PLP.part.buried>
-6.5166

> <Gold.PLP.part.nonpolar>
-24.1985

> <Gold.PLP.part.repulsive>
0.1201

> <Gold.PLP.ligand.clash>
0.0000

> <Gold.PLP.ligand.torsion>
1.0486

> <Gold.PLP.Chemscore.Hbond>
5.0000

> <Gold.PLP.Chemscore.CHOScore>
0.0000

> <Gold.PLP.Chemscore.Metal>
0.0000

> <Gold.Chemscore.Hbonds>
donor molecule, donor type, donor heavy atom, donor atom, acceptor molecule, acceptor atom, score
      L1  H    13    35       P1  7948  1.00
      L1  H    20    44       P1 10957  1.85
      P1  H  7989  7998       L1     7  0.78
      P1  H  7997  8008       L1     6  1.00

> <Gold.PLP.Chemscore.Internal.Correction>
0.4121

> <Gold.Rescore>
     Score         DG    S(hbond)    S(metal)    S(lipo)     H(rot)  DE(clash)    DE(int)     intcor
     19.49     -20.54       3.73        0.00      69.17       2.14       0.00       1.04       ----

> <Gold.Chemscore.Fitness>
19.4894

> <Gold.Chemscore.DG>
-20.5377

> <Gold.Chemscore.ZeroCoef>
-5.4800

> <Gold.Chemscore.Hbond>
3.7263

> <Gold.Chemscore.Metal>
0.0000

> <Gold.Chemscore.Lipo>
69.1657

> <Gold.Chemscore.Internal_Hbond>
0.0000

> <Gold.Chemscore.DEClash>
0.0042

> <Gold.Chemscore.DEInternal>
1.0441

> <Gold.Chemscore.Rot>
2.1408

> <Gold.Chemscore.Internal.Correction>
   9.000000E+99

> <Gold.Chemscore.Hbonds>
donor molecule, donor type, donor heavy atom, donor atom, acceptor molecule, acceptor atom, score
      L1  H    13    35       P1  7948  0.60
      L1  H    20    44       P1 10957  0.27
      P1  H  7989  7998       L1     7  0.22
      P1  H  7997  8008       L1     6  1.00

> <Gold.Chemscore.Hbond.Weighted>
-12.4458

> <Gold.Chemscore.Metal.Weighted>
-0.0000

> <Gold.Chemscore.Lipo.Weighted>
-8.0924

> <Gold.Chemscore.Internal_Hbond.Weighted>
0.0000

> <Gold.Chemscore.DEClash.Weighted>
0.0042

> <Gold.Chemscore.DEInternal.Weighted>
1.0441

> <Gold.Chemscore.Rot.Weighted>
5.4805

> <Gold.Chemscore.Internal.Correction.Weighted>
   9.000000E+99

> <Gold.Protein.RotatedTorsions>
[ 6907 6896 6895 6894 ] final  -45.69 input  -60.11 | X-H torsion
[ 7974 7965 7964 7962 ] final   96.56 input  175.53 | X-H torsion
[ 8008 7997 7996 7995 ] final  -26.60 input   59.86 | X-H torsion
[ 10167 10162 10161 10158 ] final  135.66 input  -65.29 | X-H torsion
[ 10718 10713 10712 10709 ] final   86.17 input   66.30 | X-H torsion
[ 10763 10752 10751 10750 ] final   -6.27 input  -60.55 | X-H torsion
[ 11005 11000 10999 10996 ] final -134.06 input  -57.11 | X-H torsion

> <Gold.Protein.ActiveResidues>
 VAL166  LYS551  ARG553  GLY616  TRP617  ASP618  TYR619  PRO620  LYS621  CYS622 
 ASP623  PHE694  ASN695  SER759  ASP760  ASP761  ALA762  ILE779  LEU786  VAL792 
 PHE793  MET794  SER795  GLU796  ALA797  LYS798  CYS799  TRP800  GLU811  SER814 

> <Gold.Protein.RotatedAtoms>
  150.9192  134.8610  159.7477 H   0  0  0  0  0  0  0  0  0  0  0  0  # atno 6907 bound_to 6896
  152.4984  134.4243  159.9501 H   0  0  0  0  0  0  0  0  0  0  0  0  # atno 6908 bound_to 6896
  151.4279  133.3639  159.2800 H   0  0  0  0  0  0  0  0  0  0  0  0  # atno 6909 bound_to 6896
  145.4372  139.2304  143.3112 H   0  0  0  0  0  0  0  0  0  0  0  0  # atno 7974 bound_to 7965
  154.4417  140.1895  156.0801 H   0  0  0  0  0  0  0  0  0  0  0  0  # atno 8008 bound_to 7997
  156.0445  140.3316  155.7255 H   0  0  0  0  0  0  0  0  0  0  0  0  # atno 8009 bound_to 7997
  155.5649  140.0607  157.2811 H   0  0  0  0  0  0  0  0  0  0  0  0  # atno 8010 bound_to 7997
  139.5209  144.6505  151.5315 H   0  0  0  0  0  0  0  0  0  0  0  0  # atno 10167 bound_to 10162
  157.6925  131.0205  150.2933 H   0  0  0  0  0  0  0  0  0  0  0  0  # atno 10718 bound_to 10713
  153.4100  135.7007  153.6366 H   0  0  0  0  0  0  0  0  0  0  0  0  # atno 10763 bound_to 10752
  153.4864  135.3682  155.2469 H   0  0  0  0  0  0  0  0  0  0  0  0  # atno 10764 bound_to 10752
  154.8716  135.4078  154.3450 H   0  0  0  0  0  0  0  0  0  0  0  0  # atno 10765 bound_to 10752
  140.9025  134.1672  157.4450 H   0  0  0  0  0  0  0  0  0  0  0  0  # atno 11005 bound_to 11000
  146.2576  140.5115  142.8867 LP  0  0  0  0  0  0  0  0  0  0  0  0  # atno 17320 bound_to 7965
  144.8145  140.6443  143.6393 LP  0  0  0  0  0  0  0  0  0  0  0  0  # atno 17321 bound_to 7965
  140.6308  143.9079  150.6604 LP  0  0  0  0  0  0  0  0  0  0  0  0  # atno 17342 bound_to 10162
  140.2383  143.3683  152.1508 LP  0  0  0  0  0  0  0  0  0  0  0  0  # atno 17343 bound_to 10162
  156.3460  130.3823  149.7369 LP  0  0  0  0  0  0  0  0  0  0  0  0  # atno 17370 bound_to 10713
  156.4862  130.8064  151.3076 LP  0  0  0  0  0  0  0  0  0  0  0  0  # atno 17371 bound_to 10713
  139.8744  134.9903  156.5499 LP  0  0  0  0  0  0  0  0  0  0  0  0  # atno 17394 bound_to 11000
  140.8212  133.8352  155.8898 LP  0  0  0  0  0  0  0  0  0  0  0  0  # atno 17395 bound_to 11000

$$$$
