AV-unprocessed.smi:933|AV-procd|sdf|4202|dock5
  -GOLD-   22720 2113D 1   1.00000     0.00000
 Structure written by MMmdl.
 42 43  0  0  0  0  0  0  0  0  1 V2000
  150.5078  142.2999  157.1972 C   0  0  0  0  0  0  0  0  0  0  0  0
  151.3513  141.2508  156.4652 C   0  0  0  0  0  0  0  0  0  0  0  0
  150.5301  140.3722  155.5822 C   0  0  0  0  0  0  0  0  0  0  0  0
  149.2240  140.5550  155.3704 N   0  0  0  0  0  0  0  0  0  0  0  0
  148.6707  139.5751  154.5406 C   0  0  0  0  0  0  0  0  0  0  0  0
  147.2092  139.6214  154.2007 C   0  0  0  0  0  0  0  0  0  0  0  0
  146.9255  139.3880  152.7072 C   0  0  0  0  0  0  0  0  0  0  0  0
  146.9220  137.9634  152.3763 N   0  0  0  0  0  0  0  0  0  0  0  0
  145.8931  137.1061  152.4835 C   0  0  0  0  0  0  0  0  0  0  0  0
  144.7943  137.4606  152.9059 O   0  0  0  0  0  0  0  0  0  0  0  0
  146.1767  135.8476  152.1057 N   0  0  0  0  0  0  0  0  0  0  0  0
  145.2470  134.7178  152.1175 C   0  0  1  0  0  0  0  0  0  0  0  0
  144.2078  134.8791  150.9882 C   0  0  0  0  0  0  0  0  0  0  0  0
  144.3452  133.6503  150.0826 C   0  0  0  0  0  0  0  0  0  0  0  0
  145.7438  133.1067  150.3600 C   0  0  0  0  0  0  0  0  0  0  0  0
  145.9462  133.3628  151.8540 C   0  0  1  0  0  0  0  0  0  0  0  0
  147.4093  133.2306  152.3116 C   0  0  0  0  0  0  0  0  0  0  0  0
  149.5846  138.6387  154.1247 C   0  0  0  0  0  0  0  0  0  0  0  0
  151.1714  138.9471  154.7730 S   0  0  0  0  0  0  0  0  0  0  0  0
  151.1333  142.9252  157.8342 H   0  0  0  0  0  0  0  0  0  0  0  0
  149.7547  141.8278  157.8288 H   0  0  0  0  0  0  0  0  0  0  0  0
  149.9925  142.9520  156.4914 H   0  0  0  0  0  0  0  0  0  0  0  0
  152.1157  141.7420  155.8623 H   0  0  0  0  0  0  0  0  0  0  0  0
  151.8766  140.6258  157.1878 H   0  0  0  0  0  0  0  0  0  0  0  0
  146.6681  138.8781  154.7871 H   0  0  0  0  0  0  0  0  0  0  0  0
  146.7932  140.5859  154.4943 H   0  0  0  0  0  0  0  0  0  0  0  0
  145.9553  139.8183  152.4528 H   0  0  0  0  0  0  0  0  0  0  0  0
  147.6740  139.9035  152.1038 H   0  0  0  0  0  0  0  0  0  0  0  0
  147.8004  137.5811  152.0566 H   0  0  0  0  0  0  0  0  0  0  0  0
  147.1126  135.6566  151.7793 H   0  0  0  0  0  0  0  0  0  0  0  0
  144.7301  134.6751  153.0779 H   0  0  0  0  0  0  0  0  0  0  0  0
  143.1951  134.9604  151.3846 H   0  0  0  0  0  0  0  0  0  0  0  0
  144.3929  135.7849  150.4082 H   0  0  0  0  0  0  0  0  0  0  0  0
  143.6028  132.9029  150.3661 H   0  0  0  0  0  0  0  0  0  0  0  0
  144.1898  133.8867  149.0297 H   0  0  0  0  0  0  0  0  0  0  0  0
  145.8402  132.0524  150.0982 H   0  0  0  0  0  0  0  0  0  0  0  0
  146.4793  133.6650  149.7790 H   0  0  0  0  0  0  0  0  0  0  0  0
  145.3714  132.6026  152.3857 H   0  0  0  0  0  0  0  0  0  0  0  0
  148.0659  133.9169  151.7758 H   0  0  0  0  0  0  0  0  0  0  0  0
  147.7793  132.2204  152.1353 H   0  0  0  0  0  0  0  0  0  0  0  0
  147.5055  133.4347  153.3782 H   0  0  0  0  0  0  0  0  0  0  0  0
  149.4190  137.7837  153.4860 H   0  0  0  0  0  0  0  0  0  0  0  0
  1  2  1  0  0  0  0
  1 20  1  0  0  0  0
  1 21  1  0  0  0  0
  1 22  1  0  0  0  0
  2  3  1  0  0  0  0
  2 23  1  0  0  0  0
  2 24  1  0  0  0  0
  3 19  1  0  0  0  0
  3  4  2  0  0  0  0
  4  5  1  0  0  0  0
  5  6  1  0  0  0  0
  5 18  2  0  0  0  0
  6  7  1  0  0  0  0
  6 25  1  0  0  0  0
  6 26  1  0  0  0  0
  7  8  1  0  0  0  0
  7 27  1  0  0  0  0
  7 28  1  0  0  0  0
  8  9  1  0  0  0  0
  8 29  1  0  0  0  0
  9 10  2  0  0  0  0
  9 11  1  0  0  0  0
 11 12  1  0  0  0  0
 11 30  1  0  0  0  0
 12 16  1  0  0  0  0
 12 13  1  0  0  0  0
 12 31  1  0  0  0  0
 13 14  1  0  0  0  0
 13 32  1  0  0  0  0
 13 33  1  0  0  0  0
 14 15  1  0  0  0  0
 14 34  1  0  0  0  0
 14 35  1  0  0  0  0
 15 16  1  0  0  0  0
 15 36  1  0  0  0  0
 15 37  1  0  0  0  0
 16 17  1  0  0  0  0
 16 38  1  0  0  0  0
 17 39  1  0  0  0  0
 17 40  1  0  0  0  0
 17 41  1  0  0  0  0
 18 19  1  0  0  0  0
 18 42  1  0  0  0  0
M  END
> <s_m_source_file>
AV-unprocessed.smi

> <i_m_source_file_index>
933

> <i_lp_mmshare_version>
43012

> <i_f3d_flags>
0

> <s_epik_input>
W0NIM11bQ0gyXWMxbmMoW2NIXXMxKVtDSDJdW0NIMl1bTkhdQyg9TylbTkhdW0NAQEhdMltDSDJdW0NIMl1bQ0gyXVtDQEhdMltDSDNd

> <s_epik_cmdline>
J2VwaWtfcHl0aG9uJywgJy1waCcsICc3LjAnLCAnLXRuJywgJzgnLCAnLW1hJywgJzIwMCcsICctbWV0YWxfYmluZGluZycsICctaW1hZScsICc8aW5maWxlLm1hZT4nLCAnLW9tYWUnLCAnPG91dGZpbGUubWFlPic=

> <r_epik_Ionization_Penalty>
0.00203408

> <r_epik_Ionization_Penalty_Charging>
0

> <r_epik_Ionization_Penalty_Neutral>
0.00203408

> <r_epik_State_Penalty>
0.0013452

> <r_epik_Charging_Adjusted_Penalty>
0.0013452

> <i_epik_Tot_Q>
0

> <i_epik_Tot_abs_Q>
0

> <r_epik_Metal_State_Penalty>
-0

> <b_epik_Metal_Only>
0

> <s_lp_Force_Field>
OPLS_2005

> <r_lp_Energy>
20.9711

> <b_lp_Chiralities_Consistent>
1

> <s_lp_Variant>
AV-unprocessed.smi:933-2

> <Gold.Version>
5.8.1

> <Gold.Id.Protein>
6NUR|6NUR_protein|mol2

> <Gold.PLP.Fitness>
41.7982

> <Gold.PLP.PLP>
-34.1973

> <Gold.PLP.part.hbond>
-2.0000

> <Gold.PLP.part.metal>
0.0000

> <Gold.PLP.part.buried>
-2.7552

> <Gold.PLP.part.nonpolar>
-29.4960

> <Gold.PLP.part.repulsive>
0.3800

> <Gold.PLP.ligand.clash>
0.0000

> <Gold.PLP.ligand.torsion>
0.6175

> <Gold.PLP.Chemscore.Hbond>
1.9280

> <Gold.PLP.Chemscore.CHOScore>
1.0000

> <Gold.PLP.Chemscore.Metal>
0.0000

> <Gold.Chemscore.Hbonds>
donor molecule, donor type, donor heavy atom, donor atom, acceptor molecule, acceptor atom, score
      L1  H     8    29       P1  7948  1.00
      L1  H    11    30       P1  7948  0.93
      L1  C    18    42       P1  7948  1.00

> <Gold.PLP.Chemscore.Internal.Correction>
0.0519

> <Gold.Rescore>
     Score         DG    S(hbond)    S(metal)    S(lipo)     H(rot)  DE(clash)    DE(int)     intcor
     17.26     -17.82       1.85        0.00      86.57       1.55       0.13       0.43       ----

> <Gold.Chemscore.Fitness>
17.2634

> <Gold.Chemscore.DG>
-17.8240

> <Gold.Chemscore.ZeroCoef>
-5.4800

> <Gold.Chemscore.Hbond>
1.8498

> <Gold.Chemscore.Metal>
0.0000

> <Gold.Chemscore.Lipo>
86.5746

> <Gold.Chemscore.Internal_Hbond>
0.0000

> <Gold.Chemscore.DEClash>
0.1335

> <Gold.Chemscore.DEInternal>
0.4271

> <Gold.Chemscore.Rot>
1.5482

> <Gold.Chemscore.Internal.Correction>
   9.000000E+99

> <Gold.Chemscore.Hbonds>
donor molecule, donor type, donor heavy atom, donor atom, acceptor molecule, acceptor atom, score
      L1  H     8    29       P1  7948  0.97
      L1  H    11    30       P1  7948  0.89

> <Gold.Chemscore.Hbond.Weighted>
-6.1783

> <Gold.Chemscore.Metal.Weighted>
-0.0000

> <Gold.Chemscore.Lipo.Weighted>
-10.1292

> <Gold.Chemscore.Internal_Hbond.Weighted>
0.0000

> <Gold.Chemscore.DEClash.Weighted>
0.1335

> <Gold.Chemscore.DEInternal.Weighted>
0.4271

> <Gold.Chemscore.Rot.Weighted>
3.9635

> <Gold.Chemscore.Internal.Correction.Weighted>
   9.000000E+99

> <Gold.Protein.RotatedTorsions>
[ 6907 6896 6895 6894 ] final  168.34 input  -60.11 | X-H torsion
[ 7974 7965 7964 7962 ] final  119.79 input  175.53 | X-H torsion
[ 8008 7997 7996 7995 ] final   55.17 input   59.86 | X-H torsion
[ 10167 10162 10161 10158 ] final  171.54 input  -65.29 | X-H torsion
[ 10718 10713 10712 10709 ] final  157.13 input   66.30 | X-H torsion
[ 10763 10752 10751 10750 ] final -103.75 input  -60.55 | X-H torsion
[ 11005 11000 10999 10996 ] final -169.39 input  -57.11 | X-H torsion

> <Gold.Protein.ActiveResidues>
 VAL166  LYS551  ARG553  GLY616  TRP617  ASP618  TYR619  PRO620  LYS621  CYS622 
 ASP623  PHE694  ASN695  SER759  ASP760  ASP761  ALA762  ILE779  LEU786  VAL792 
 PHE793  MET794  SER795  GLU796  ALA797  LYS798  CYS799  TRP800  GLU811  SER814 

> <Gold.Protein.RotatedAtoms>
  151.8492  133.3437  159.3667 H   0  0  0  0  0  0  0  0  0  0  0  0  # atno 6907 bound_to 6896
  150.7211  134.5316  159.5712 H   0  0  0  0  0  0  0  0  0  0  0  0  # atno 6908 bound_to 6896
  152.2806  134.7833  160.0448 H   0  0  0  0  0  0  0  0  0  0  0  0  # atno 6909 bound_to 6896
  145.1388  139.3281  143.4626 H   0  0  0  0  0  0  0  0  0  0  0  0  # atno 7974 bound_to 7965
  155.4968  140.3473  155.4364 H   0  0  0  0  0  0  0  0  0  0  0  0  # atno 8008 bound_to 7997
  156.0940  140.1418  156.9582 H   0  0  0  0  0  0  0  0  0  0  0  0  # atno 8009 bound_to 7997
  154.4652  140.0920  156.6979 H   0  0  0  0  0  0  0  0  0  0  0  0  # atno 8010 bound_to 7997
  139.5049  144.3475  151.9956 H   0  0  0  0  0  0  0  0  0  0  0  0  # atno 10167 bound_to 10162
  157.1956  131.0664  151.2055 H   0  0  0  0  0  0  0  0  0  0  0  0  # atno 10718 bound_to 10713
  154.7830  135.4812  153.9884 H   0  0  0  0  0  0  0  0  0  0  0  0  # atno 10763 bound_to 10752
  153.1520  135.6793  153.8876 H   0  0  0  0  0  0  0  0  0  0  0  0  # atno 10764 bound_to 10752
  153.8517  135.3166  155.3411 H   0  0  0  0  0  0  0  0  0  0  0  0  # atno 10765 bound_to 10752
  140.5313  134.5614  157.5075 H   0  0  0  0  0  0  0  0  0  0  0  0  # atno 11005 bound_to 11000
  146.3507  140.1417  142.8594 LP  0  0  0  0  0  0  0  0  0  0  0  0  # atno 17320 bound_to 7965
  145.0554  140.9049  143.4970 LP  0  0  0  0  0  0  0  0  0  0  0  0  # atno 17321 bound_to 7965
  140.2912  144.3752  150.6088 LP  0  0  0  0  0  0  0  0  0  0  0  0  # atno 17342 bound_to 10162
  140.5945  143.2167  151.7190 LP  0  0  0  0  0  0  0  0  0  0  0  0  # atno 17343 bound_to 10162
  157.3818  130.7235  149.6635 LP  0  0  0  0  0  0  0  0  0  0  0  0  # atno 17370 bound_to 10713
  155.9706  130.4170  150.4260 LP  0  0  0  0  0  0  0  0  0  0  0  0  # atno 17371 bound_to 10713
  139.9553  134.7546  156.0356 LP  0  0  0  0  0  0  0  0  0  0  0  0  # atno 17394 bound_to 11000
  141.1280  133.6594  156.3388 LP  0  0  0  0  0  0  0  0  0  0  0  0  # atno 17395 bound_to 11000

$$$$
