AV-unprocessed.smi:2899|AV-procd|sdf|11144|dock4
  -GOLD-   2272016 23D 1   1.00000     0.00000
 Structure written by MMmdl.
 30 32  0  0  0  0  0  0  0  0  1 V2000
  153.2195  142.1970  161.1113 C   0  0  0  0  0  0  0  0  0  0  0  0
  152.3870  143.1900  160.3285 C   0  0  0  0  0  0  0  0  0  0  0  0
  152.2161  144.5196  160.7666 C   0  0  0  0  0  0  0  0  0  0  0  0
  151.4181  145.3448  159.9487 C   0  0  0  0  0  0  0  0  0  0  0  0
  150.8527  144.8860  158.8104 N   0  0  0  0  0  0  0  0  0  0  0  0
  151.0817  143.6102  158.4895 C   0  0  0  0  0  0  0  0  0  0  0  0
  150.4895  143.1779  157.3171 N   0  0  0  0  0  0  0  0  0  0  0  0
  151.0156  142.1177  156.4647 C   0  0  1  0  0  0  0  0  0  0  0  0
  151.1895  140.7855  157.1977 C   0  0  0  0  0  0  0  0  0  0  0  0
  150.4118  139.8229  156.2882 C   0  0  1  0  0  0  0  0  0  0  0  0
  148.8962  140.0002  156.4466 C   0  0  0  0  0  0  0  0  0  0  0  0
  148.6652  141.3354  155.7416 C   0  0  0  0  0  0  0  0  0  0  0  0
  150.0895  141.7142  155.3005 C   0  0  2  0  0  0  0  0  0  0  0  0
  150.6107  140.4259  155.0200 O   0  0  0  0  0  0  0  0  0  0  0  0
  151.8179  142.7384  159.1896 N   0  0  0  0  0  0  0  0  0  0  0  0
  153.5881  142.6364  162.0386 H   0  0  0  0  0  0  0  0  0  0  0  0
  154.0778  141.8741  160.5215 H   0  0  0  0  0  0  0  0  0  0  0  0
  152.6247  141.3187  161.3635 H   0  0  0  0  0  0  0  0  0  0  0  0
  152.6679  144.8886  161.6755 H   0  0  0  0  0  0  0  0  0  0  0  0
  151.2325  146.3765  160.2082 H   0  0  0  0  0  0  0  0  0  0  0  0
  149.7009  143.7098  156.9793 H   0  0  0  0  0  0  0  0  0  0  0  0
  151.9832  142.4279  156.0675 H   0  0  0  0  0  0  0  0  0  0  0  0
  152.2448  140.5143  157.2418 H   0  0  0  0  0  0  0  0  0  0  0  0
  150.7990  140.7886  158.2165 H   0  0  0  0  0  0  0  0  0  0  0  0
  150.7448  138.7867  156.3519 H   0  0  0  0  0  0  0  0  0  0  0  0
  148.3553  139.2011  155.9383 H   0  0  0  0  0  0  0  0  0  0  0  0
  148.5859  140.0133  157.4920 H   0  0  0  0  0  0  0  0  0  0  0  0
  148.0210  141.1972  154.8726 H   0  0  0  0  0  0  0  0  0  0  0  0
  148.2031  142.0840  156.3854 H   0  0  0  0  0  0  0  0  0  0  0  0
  150.1200  142.3985  154.4523 H   0  0  0  0  0  0  0  0  0  0  0  0
  1  2  1  0  0  0  0
  1 16  1  0  0  0  0
  1 17  1  0  0  0  0
  1 18  1  0  0  0  0
  2 15  1  0  0  0  0
  2  3  2  0  0  0  0
  3  4  1  0  0  0  0
  3 19  1  0  0  0  0
  4  5  2  0  0  0  0
  4 20  1  0  0  0  0
  5  6  1  0  0  0  0
  6  7  1  0  0  0  0
  6 15  2  0  0  0  0
  7  8  1  0  0  0  0
  7 21  1  0  0  0  0
  8 13  1  0  0  0  0
  8  9  1  0  0  0  0
  8 22  1  0  0  0  0
  9 10  1  0  0  0  0
  9 23  1  0  0  0  0
  9 24  1  0  0  0  0
 10 14  1  0  0  0  0
 10 11  1  0  0  0  0
 10 25  1  0  0  0  0
 11 12  1  0  0  0  0
 11 26  1  0  0  0  0
 11 27  1  0  0  0  0
 12 13  1  0  0  0  0
 12 28  1  0  0  0  0
 12 29  1  0  0  0  0
 13 14  1  0  0  0  0
 13 30  1  0  0  0  0
M  END
> <s_m_source_file>
AV-unprocessed.smi

> <i_m_source_file_index>
2899

> <i_lp_mmshare_version>
43012

> <i_f3d_flags>
0

> <s_epik_input>
W0NIM11jMVtjSF1bY0hdbmMobjEpW05IXVtDQEhdKFtDSDJdW0NAQEhdMjMpW0NAQEhdKE8zKVtDSDJdW0NIMl0y

> <s_epik_cmdline>
J2VwaWtfcHl0aG9uJywgJy1waCcsICc3LjAnLCAnLXRuJywgJzgnLCAnLW1hJywgJzIwMCcsICctbWV0YWxfYmluZGluZycsICctaW1hZScsICc8aW5maWxlLm1hZT4nLCAnLW9tYWUnLCAnPG91dGZpbGUubWFlPic=

> <r_lp_tautomer_probability>
1

> <r_epik_Ionization_Penalty>
0.00589655

> <r_epik_Ionization_Penalty_Charging>
0

> <r_epik_Ionization_Penalty_Neutral>
0.00589655

> <r_epik_State_Penalty>
0.00375391

> <r_epik_Charging_Adjusted_Penalty>
0.00375391

> <i_epik_Tot_Q>
0

> <i_epik_Tot_abs_Q>
0

> <r_epik_Metal_State_Penalty>
-0

> <b_epik_Metal_Only>
0

> <s_lp_Force_Field>
OPLS_2005

> <r_lp_Energy>
31.8412

> <b_lp_Chiralities_Consistent>
1

> <s_lp_Variant>
AV-unprocessed.smi:2899-2

> <Gold.Version>
5.8.1

> <Gold.Id.Protein>
6NUR|6NUR_protein|mol2

> <Gold.PLP.Fitness>
36.9823

> <Gold.PLP.PLP>
-31.4352

> <Gold.PLP.part.hbond>
-2.0000

> <Gold.PLP.part.metal>
0.0000

> <Gold.PLP.part.buried>
-5.2875

> <Gold.PLP.part.nonpolar>
-23.0107

> <Gold.PLP.part.repulsive>
0.2319

> <Gold.PLP.ligand.clash>
0.0000

> <Gold.PLP.ligand.torsion>
0.1949

> <Gold.PLP.Chemscore.Hbond>
1.9760

> <Gold.PLP.Chemscore.CHOScore>
0.0000

> <Gold.PLP.Chemscore.Metal>
0.0000

> <Gold.Chemscore.Hbonds>
donor molecule, donor type, donor heavy atom, donor atom, acceptor molecule, acceptor atom, score
      L1  H     7    21       P1  8028  1.00
      P1  H  7989  7998       L1    14  0.90

> <Gold.PLP.Chemscore.Internal.Correction>
0.0088

> <Gold.Rescore>
     Score         DG    S(hbond)    S(metal)    S(lipo)     H(rot)  DE(clash)    DE(int)     intcor
     14.86     -16.63       1.36        0.00      78.28       1.00       0.20       1.56       ----

> <Gold.Chemscore.Fitness>
14.8619

> <Gold.Chemscore.DG>
-16.6260

> <Gold.Chemscore.ZeroCoef>
-5.4800

> <Gold.Chemscore.Hbond>
1.3614

> <Gold.Chemscore.Metal>
0.0000

> <Gold.Chemscore.Lipo>
78.2797

> <Gold.Chemscore.Internal_Hbond>
0.0000

> <Gold.Chemscore.DEClash>
0.2038

> <Gold.Chemscore.DEInternal>
1.5602

> <Gold.Chemscore.Rot>
1.0000

> <Gold.Chemscore.Internal.Correction>
   9.000000E+99

> <Gold.Chemscore.Hbonds>
donor molecule, donor type, donor heavy atom, donor atom, acceptor molecule, acceptor atom, score
      L1  H     7    21       P1  8028  0.90
      P1  H  7989  7998       L1    14  0.17

> <Gold.Chemscore.Hbond.Weighted>
-4.5472

> <Gold.Chemscore.Metal.Weighted>
-0.0000

> <Gold.Chemscore.Lipo.Weighted>
-9.1587

> <Gold.Chemscore.Internal_Hbond.Weighted>
0.0000

> <Gold.Chemscore.DEClash.Weighted>
0.2038

> <Gold.Chemscore.DEInternal.Weighted>
1.5602

> <Gold.Chemscore.Rot.Weighted>
2.5600

> <Gold.Chemscore.Internal.Correction.Weighted>
   9.000000E+99

> <Gold.Protein.RotatedTorsions>
[ 6907 6896 6895 6894 ] final  -43.99 input  -60.11 | X-H torsion
[ 7974 7965 7964 7962 ] final   35.85 input  175.53 | X-H torsion
[ 8008 7997 7996 7995 ] final    1.01 input   59.86 | X-H torsion
[ 10167 10162 10161 10158 ] final  153.99 input  -65.29 | X-H torsion
[ 10718 10713 10712 10709 ] final  158.88 input   66.30 | X-H torsion
[ 10763 10752 10751 10750 ] final  178.98 input  -60.55 | X-H torsion
[ 11005 11000 10999 10996 ] final  -54.57 input  -57.11 | X-H torsion

> <Gold.Protein.ActiveResidues>
 VAL166  LYS551  ARG553  GLY616  TRP617  ASP618  TYR619  PRO620  LYS621  CYS622 
 ASP623  PHE694  ASN695  SER759  ASP760  ASP761  ALA762  ILE779  LEU786  VAL792 
 PHE793  MET794  SER795  GLU796  ALA797  LYS798  CYS799  TRP800  GLU811  SER814 

> <Gold.Protein.RotatedAtoms>
  150.9377  134.8789  159.7592 H   0  0  0  0  0  0  0  0  0  0  0  0  # atno 6907 bound_to 6896
  152.5066  134.3986  159.9419 H   0  0  0  0  0  0  0  0  0  0  0  0  # atno 6908 bound_to 6896
  151.4009  133.3718  159.2767 H   0  0  0  0  0  0  0  0  0  0  0  0  # atno 6909 bound_to 6896
  146.1253  139.6090  142.9262 H   0  0  0  0  0  0  0  0  0  0  0  0  # atno 7974 bound_to 7965
  154.6747  140.2619  155.6970 H   0  0  0  0  0  0  0  0  0  0  0  0  # atno 8008 bound_to 7997
  156.2673  140.2822  156.1192 H   0  0  0  0  0  0  0  0  0  0  0  0  # atno 8009 bound_to 7997
  155.1117  140.0376  157.2716 H   0  0  0  0  0  0  0  0  0  0  0  0  # atno 8010 bound_to 7997
  139.4825  144.5226  151.7852 H   0  0  0  0  0  0  0  0  0  0  0  0  # atno 10167 bound_to 10162
  157.1718  131.0612  151.2179 H   0  0  0  0  0  0  0  0  0  0  0  0  # atno 10718 bound_to 10713
  154.5147  135.2790  155.1313 H   0  0  0  0  0  0  0  0  0  0  0  0  # atno 10763 bound_to 10752
  154.2895  135.6270  153.5383 H   0  0  0  0  0  0  0  0  0  0  0  0  # atno 10764 bound_to 10752
  152.9925  135.5670  154.5621 H   0  0  0  0  0  0  0  0  0  0  0  0  # atno 10765 bound_to 10752
  141.1032  133.6616  156.4340 H   0  0  0  0  0  0  0  0  0  0  0  0  # atno 11005 bound_to 11000
  145.5378  141.0423  143.2347 LP  0  0  0  0  0  0  0  0  0  0  0  0  # atno 17320 bound_to 7965
  144.7637  139.6897  143.7224 LP  0  0  0  0  0  0  0  0  0  0  0  0  # atno 17321 bound_to 7965
  140.4742  144.1544  150.5922 LP  0  0  0  0  0  0  0  0  0  0  0  0  # atno 17342 bound_to 10162
  140.4349  143.2551  151.9548 LP  0  0  0  0  0  0  0  0  0  0  0  0  # atno 17343 bound_to 10162
  157.4036  130.7346  149.6785 LP  0  0  0  0  0  0  0  0  0  0  0  0  # atno 17370 bound_to 10713
  155.9737  130.4114  150.3980 LP  0  0  0  0  0  0  0  0  0  0  0  0  # atno 17371 bound_to 10713
  140.4969  134.6523  157.5233 LP  0  0  0  0  0  0  0  0  0  0  0  0  # atno 17394 bound_to 11000
  139.9892  134.7013  155.9720 LP  0  0  0  0  0  0  0  0  0  0  0  0  # atno 17395 bound_to 11000

$$$$
