AV-unprocessed.smi:2200|AV-procd|sdf|8925|dock8
  -GOLD-   2272012143D 1   1.00000     0.00000
 Structure written by MMmdl.
 31 31  0  0  0  0  0  0  0  0  1 V2000
  151.9271  145.1894  160.2438 C   0  0  0  0  0  0  0  0  0  0  0  0
  151.8301  144.1889  159.0832 C   0  0  0  0  0  0  0  0  0  0  0  0
  152.4827  144.7628  157.8131 C   0  0  0  0  0  0  0  0  0  0  0  0
  150.3645  143.7604  158.8522 C   0  0  0  0  0  0  0  0  0  0  0  0
  150.1479  143.1984  157.5232 N   0  0  0  0  0  0  0  0  0  0  0  0
  149.9276  141.9016  157.2602 C   0  0  0  0  0  0  0  0  0  0  0  0
  149.8406  141.0410  158.1370 O   0  0  0  0  0  0  0  0  0  0  0  0
  149.7670  141.5267  155.7804 C   0  0  0  0  0  0  0  0  0  0  0  0
  150.1517  140.1349  155.5056 N   0  0  0  0  0  0  0  0  0  0  0  0
  151.3826  139.6500  155.9247 C   0  0  0  0  0  0  0  0  0  0  0  0
  151.8033  138.3839  155.6928 C   0  0  0  0  0  0  0  0  0  0  0  0
  150.9544  137.4443  154.9682 C   0  0  0  0  0  0  0  0  0  0  0  0
  151.2459  136.2784  154.7108 O   0  0  0  0  0  0  0  0  0  0  0  0
  149.7254  137.9701  154.5611 N   0  0  0  0  0  0  0  0  0  0  0  0
  149.2858  139.2739  154.7959 C   0  0  0  0  0  0  0  0  0  0  0  0
  148.1828  139.6377  154.3894 O   0  0  0  0  0  0  0  0  0  0  0  0
  149.1047  137.3570  154.0531 H   0  0  0  0  0  0  0  0  0  0  0  0
  151.3857  146.1094  160.0207 H   0  0  0  0  0  0  0  0  0  0  0  0
  152.9649  145.4542  160.4486 H   0  0  0  0  0  0  0  0  0  0  0  0
  151.5094  144.7703  161.1597 H   0  0  0  0  0  0  0  0  0  0  0  0
  152.4006  143.3060  159.3742 H   0  0  0  0  0  0  0  0  0  0  0  0
  151.9437  145.6395  157.4523 H   0  0  0  0  0  0  0  0  0  0  0  0
  152.5064  144.0298  157.0061 H   0  0  0  0  0  0  0  0  0  0  0  0
  153.5132  145.0626  158.0047 H   0  0  0  0  0  0  0  0  0  0  0  0
  150.0552  143.0368  159.6085 H   0  0  0  0  0  0  0  0  0  0  0  0
  149.7040  144.6208  158.9648 H   0  0  0  0  0  0  0  0  0  0  0  0
  150.1954  143.8392  156.7441 H   0  0  0  0  0  0  0  0  0  0  0  0
  148.7270  141.6982  155.4996 H   0  0  0  0  0  0  0  0  0  0  0  0
  150.3504  142.2050  155.1539 H   0  0  0  0  0  0  0  0  0  0  0  0
  152.0474  140.3121  156.4612 H   0  0  0  0  0  0  0  0  0  0  0  0
  152.7741  138.0647  156.0438 H   0  0  0  0  0  0  0  0  0  0  0  0
  1  2  1  0  0  0  0
  1 18  1  0  0  0  0
  1 19  1  0  0  0  0
  1 20  1  0  0  0  0
  2  3  1  0  0  0  0
  2  4  1  0  0  0  0
  2 21  1  0  0  0  0
  3 22  1  0  0  0  0
  3 23  1  0  0  0  0
  3 24  1  0  0  0  0
  4  5  1  0  0  0  0
  4 25  1  0  0  0  0
  4 26  1  0  0  0  0
  5  6  1  0  0  0  0
  5 27  1  0  0  0  0
  6  7  2  0  0  0  0
  6  8  1  0  0  0  0
  8  9  1  0  0  0  0
  8 28  1  0  0  0  0
  8 29  1  0  0  0  0
  9 15  1  0  0  0  0
  9 10  1  0  0  0  0
 10 11  2  0  0  0  0
 10 30  1  0  0  0  0
 11 12  1  0  0  0  0
 11 31  1  0  0  0  0
 12 13  2  0  0  0  0
 12 14  1  0  0  0  0
 14 17  1  0  0  0  0
 14 15  1  0  0  0  0
 15 16  2  0  0  0  0
M  END
> <s_m_source_file>
AV-unprocessed.smi

> <i_m_source_file_index>
2200

> <i_lp_mmshare_version>
43012

> <i_f3d_flags>
0

> <s_epik_input>
W0NIM11bQ0hdKFtDSDNdKVtDSDJdW05IXUMoPU8pW0NIMl1uMVtjSF1bY0hdYyg9TylbbkhdYzE9Tw==

> <s_epik_cmdline>
J2VwaWtfcHl0aG9uJywgJy1waCcsICc3LjAnLCAnLXRuJywgJzgnLCAnLW1hJywgJzIwMCcsICctbWV0YWxfYmluZGluZycsICctaW1hZScsICc8aW5maWxlLm1hZT4nLCAnLW9tYWUnLCAnPG91dGZpbGUubWFlPic=

> <r_lp_tautomer_probability>
0.999537

> <r_epik_Ionization_Penalty>
0.00328917

> <r_epik_Ionization_Penalty_Charging>
0.00328916

> <r_epik_Ionization_Penalty_Neutral>
1.93017e-08

> <r_epik_State_Penalty>
0.00232387

> <r_epik_Charging_Adjusted_Penalty>
0.00561303

> <i_epik_Tot_Q>
0

> <i_epik_Tot_abs_Q>
0

> <r_epik_Metal_State_Penalty>
0.365274

> <b_epik_Metal_Only>
0

> <s_lp_Force_Field>
OPLS_2005

> <r_lp_Energy>
3.18145

> <b_lp_Chiralities_Consistent>
1

> <s_lp_Variant>
AV-unprocessed.smi:2200-1

> <Gold.Version>
5.8.1

> <Gold.Id.Protein>
6NUR|6NUR_protein|mol2

> <Gold.PLP.Fitness>
40.8692

> <Gold.PLP.PLP>
-36.1817

> <Gold.PLP.part.hbond>
-2.5366

> <Gold.PLP.part.metal>
0.0000

> <Gold.PLP.part.buried>
-5.9128

> <Gold.PLP.part.nonpolar>
-30.8687

> <Gold.PLP.part.repulsive>
2.1406

> <Gold.PLP.ligand.clash>
0.0000

> <Gold.PLP.ligand.torsion>
0.7259

> <Gold.PLP.Chemscore.Hbond>
2.0438

> <Gold.PLP.Chemscore.CHOScore>
0.0000

> <Gold.PLP.Chemscore.Metal>
0.0000

> <Gold.Chemscore.Hbonds>
donor molecule, donor type, donor heavy atom, donor atom, acceptor molecule, acceptor atom, score
      L1  H     5    27       P1  8028  0.69
      P1  H 10752 10764       L1    13  1.00

> <Gold.PLP.Chemscore.Internal.Correction>
0.0079

> <Gold.Rescore>
     Score         DG    S(hbond)    S(metal)    S(lipo)     H(rot)  DE(clash)    DE(int)     intcor
     13.92     -15.26       2.29        0.00      62.31       2.01       0.16       1.18       ----

> <Gold.Chemscore.Fitness>
13.9157

> <Gold.Chemscore.DG>
-15.2577

> <Gold.Chemscore.ZeroCoef>
-5.4800

> <Gold.Chemscore.Hbond>
2.2893

> <Gold.Chemscore.Metal>
0.0000

> <Gold.Chemscore.Lipo>
62.3052

> <Gold.Chemscore.Internal_Hbond>
0.0000

> <Gold.Chemscore.DEClash>
0.1617

> <Gold.Chemscore.DEInternal>
1.1802

> <Gold.Chemscore.Rot>
2.0150

> <Gold.Chemscore.Internal.Correction>
   9.000000E+99

> <Gold.Chemscore.Hbonds>
donor molecule, donor type, donor heavy atom, donor atom, acceptor molecule, acceptor atom, score
      L1  H     5    27       P1  8028  0.70
      L1  H    14    17       P1  7948  0.04
      P1  H 10752 10764       L1    13  1.00

> <Gold.Chemscore.Hbond.Weighted>
-7.6463

> <Gold.Chemscore.Metal.Weighted>
-0.0000

> <Gold.Chemscore.Lipo.Weighted>
-7.2897

> <Gold.Chemscore.Internal_Hbond.Weighted>
0.0000

> <Gold.Chemscore.DEClash.Weighted>
0.1617

> <Gold.Chemscore.DEInternal.Weighted>
1.1802

> <Gold.Chemscore.Rot.Weighted>
5.1583

> <Gold.Chemscore.Internal.Correction.Weighted>
   9.000000E+99

> <Gold.Protein.RotatedTorsions>
[ 6907 6896 6895 6894 ] final -110.91 input  -60.11 | X-H torsion
[ 7974 7965 7964 7962 ] final  -43.20 input  175.53 | X-H torsion
[ 8008 7997 7996 7995 ] final   81.80 input   59.86 | X-H torsion
[ 10167 10162 10161 10158 ] final  146.65 input  -65.29 | X-H torsion
[ 10718 10713 10712 10709 ] final  -61.88 input   66.30 | X-H torsion
[ 10763 10752 10751 10750 ] final  -61.53 input  -60.55 | X-H torsion
[ 11005 11000 10999 10996 ] final   -7.07 input  -57.11 | X-H torsion

> <Gold.Protein.ActiveResidues>
 VAL166  LYS551  ARG553  GLY616  TRP617  ASP618  TYR619  PRO620  LYS621  CYS622 
 ASP623  PHE694  ASN695  SER759  ASP760  ASP761  ALA762  ILE779  LEU786  VAL792 
 PHE793  MET794  SER795  GLU796  ALA797  LYS798  CYS799  TRP800  GLU811  SER814 

> <Gold.Protein.RotatedAtoms>
  150.7655  133.9313  159.3427 H   0  0  0  0  0  0  0  0  0  0  0  0  # atno 6907 bound_to 6896
  151.7211  135.0892  160.0294 H   0  0  0  0  0  0  0  0  0  0  0  0  # atno 6908 bound_to 6896
  152.3649  133.6306  159.6078 H   0  0  0  0  0  0  0  0  0  0  0  0  # atno 6909 bound_to 6896
  146.0042  140.7039  142.9255 H   0  0  0  0  0  0  0  0  0  0  0  0  # atno 7974 bound_to 7965
  155.9020  140.3432  155.6034 H   0  0  0  0  0  0  0  0  0  0  0  0  # atno 8008 bound_to 7997
  155.7488  140.0817  157.2230 H   0  0  0  0  0  0  0  0  0  0  0  0  # atno 8009 bound_to 7997
  154.4045  140.1557  156.2688 H   0  0  0  0  0  0  0  0  0  0  0  0  # atno 8010 bound_to 7997
  139.4903  144.5814  151.6865 H   0  0  0  0  0  0  0  0  0  0  0  0  # atno 10167 bound_to 10162
  156.0892  130.4203  150.1056 H   0  0  0  0  0  0  0  0  0  0  0  0  # atno 10718 bound_to 10713
  154.2860  135.6263  153.5366 H   0  0  0  0  0  0  0  0  0  0  0  0  # atno 10763 bound_to 10752
  152.9859  135.5644  154.5443 H   0  0  0  0  0  0  0  0  0  0  0  0  # atno 10764 bound_to 10752
  154.5044  135.2873  155.1370 H   0  0  0  0  0  0  0  0  0  0  0  0  # atno 10765 bound_to 10752
  140.7088  133.8926  155.8736 H   0  0  0  0  0  0  0  0  0  0  0  0  # atno 11005 bound_to 11000
  144.6930  140.3286  143.7220 LP  0  0  0  0  0  0  0  0  0  0  0  0  # atno 17320 bound_to 7965
  145.7441  139.1773  143.2359 LP  0  0  0  0  0  0  0  0  0  0  0  0  # atno 17321 bound_to 7965
  140.5420  144.0563  150.6092 LP  0  0  0  0  0  0  0  0  0  0  0  0  # atno 17342 bound_to 10162
  140.3589  143.2920  152.0406 LP  0  0  0  0  0  0  0  0  0  0  0  0  # atno 17343 bound_to 10162
  156.9070  130.9639  151.3568 LP  0  0  0  0  0  0  0  0  0  0  0  0  # atno 17370 bound_to 10713
  157.6036  130.8531  149.8840 LP  0  0  0  0  0  0  0  0  0  0  0  0  # atno 17371 bound_to 10713
  141.0102  134.1031  157.4229 LP  0  0  0  0  0  0  0  0  0  0  0  0  # atno 17394 bound_to 11000
  139.8877  135.0092  156.6576 LP  0  0  0  0  0  0  0  0  0  0  0  0  # atno 17395 bound_to 11000

$$$$
