AV-unprocessed.smi:1511|AV-procd|sdf|6099|dock9
  -GOLD-   22720 6233D 1   1.00000     0.00000
 Structure written by MMmdl.
 32 33  0  0  0  0  0  0  0  0  1 V2000
  153.9793  140.0872  158.9230 O   0  0  0  0  0  0  0  0  0  0  0  0
  152.9548  140.7150  159.1892 C   0  0  0  0  0  0  0  0  0  0  0  0
  153.0167  141.9117  160.1368 C   0  0  0  0  0  0  0  0  0  0  0  0
  152.4834  143.0964  159.4875 N   0  0  0  0  0  0  0  0  0  0  0  0
  152.4516  144.3913  159.9620 C   0  0  0  0  0  0  0  0  0  0  0  0
  151.8298  145.1555  159.0167 C   0  0  0  0  0  0  0  0  0  0  0  0
  151.5129  144.2271  157.9861 C   0  0  0  0  0  0  0  0  0  0  0  0
  151.9046  142.9954  158.2704 N   0  0  0  0  0  0  0  0  0  0  0  0
  151.7387  140.3897  158.7235 N   0  0  0  0  0  0  0  0  0  0  0  0
  151.4181  139.1893  157.9593 C   0  0  0  0  0  0  0  0  0  0  0  0
  151.0995  139.5375  156.4925 C   0  0  1  0  0  0  0  0  0  0  0  0
  151.1536  138.3068  155.5669 C   0  0  0  0  0  0  0  0  0  0  0  0
  150.5823  138.6964  154.1993 C   0  0  0  0  0  0  0  0  0  0  0  0
  149.2747  139.9329  154.5413 S   0  0  0  0  0  0  0  0  0  0  0  0
  149.5536  141.1502  153.7645 O   0  0  0  0  0  0  0  0  0  0  0  0
  147.9560  139.2840  154.4853 O   0  0  0  0  0  0  0  0  0  0  0  0
  149.7289  140.2089  156.2943 C   0  0  0  0  0  0  0  0  0  0  0  0
  152.4330  141.7096  161.0358 H   0  0  0  0  0  0  0  0  0  0  0  0
  154.0452  142.0953  160.4522 H   0  0  0  0  0  0  0  0  0  0  0  0
  152.8642  144.6553  160.9247 H   0  0  0  0  0  0  0  0  0  0  0  0
  151.6299  146.2159  159.0564 H   0  0  0  0  0  0  0  0  0  0  0  0
  151.0116  144.4102  157.0469 H   0  0  0  0  0  0  0  0  0  0  0  0
  150.9612  140.9729  158.9986 H   0  0  0  0  0  0  0  0  0  0  0  0
  152.2803  138.5233  158.0007 H   0  0  0  0  0  0  0  0  0  0  0  0
  150.5886  138.6421  158.4103 H   0  0  0  0  0  0  0  0  0  0  0  0
  151.8564  140.2386  156.1369 H   0  0  0  0  0  0  0  0  0  0  0  0
  152.1661  137.9122  155.4770 H   0  0  0  0  0  0  0  0  0  0  0  0
  150.5386  137.5120  155.9915 H   0  0  0  0  0  0  0  0  0  0  0  0
  151.3444  139.1735  153.5828 H   0  0  0  0  0  0  0  0  0  0  0  0
  150.1686  137.8497  153.6514 H   0  0  0  0  0  0  0  0  0  0  0  0
  148.9672  139.7353  156.9145 H   0  0  0  0  0  0  0  0  0  0  0  0
  149.7401  141.2768  156.5150 H   0  0  0  0  0  0  0  0  0  0  0  0
  1  2  2  0  0  0  0
  2  3  1  0  0  0  0
  2  9  1  0  0  0  0
  3  4  1  0  0  0  0
  3 18  1  0  0  0  0
  3 19  1  0  0  0  0
  4  8  1  0  0  0  0
  4  5  1  0  0  0  0
  5  6  2  0  0  0  0
  5 20  1  0  0  0  0
  6  7  1  0  0  0  0
  6 21  1  0  0  0  0
  7  8  2  0  0  0  0
  7 22  1  0  0  0  0
  9 10  1  0  0  0  0
  9 23  1  0  0  0  0
 10 11  1  0  0  0  0
 10 24  1  0  0  0  0
 10 25  1  0  0  0  0
 11 17  1  0  0  0  0
 11 12  1  0  0  0  0
 11 26  1  0  0  0  0
 12 13  1  0  0  0  0
 12 27  1  0  0  0  0
 12 28  1  0  0  0  0
 13 14  1  0  0  0  0
 13 29  1  0  0  0  0
 13 30  1  0  0  0  0
 14 15  2  0  0  0  0
 14 16  2  0  0  0  0
 14 17  1  0  0  0  0
 17 31  1  0  0  0  0
 17 32  1  0  0  0  0
M  END
> <s_m_source_file>
AV-unprocessed.smi

> <i_m_source_file_index>
1511

> <i_lp_mmshare_version>
43012

> <i_f3d_flags>
0

> <s_epik_input>
bjFbY0hdW2NIXVtjSF1uMVtDSDJdQyg9TylbTkhdW0NIMl1bQ0BASF0oW0NIMl0yKVtDSDJdW0NIMl1TMig9Tyk9Tw==

> <s_epik_cmdline>
J2VwaWtfcHl0aG9uJywgJy1waCcsICc3LjAnLCAnLXRuJywgJzgnLCAnLW1hJywgJzIwMCcsICctbWV0YWxfYmluZGluZycsICctaW1hZScsICc8aW5maWxlLm1hZT4nLCAnLW9tYWUnLCAnPG91dGZpbGUubWFlPic=

> <r_lp_tautomer_probability>
1

> <r_epik_Ionization_Penalty>
1.34373e-05

> <r_epik_Ionization_Penalty_Charging>
0

> <r_epik_Ionization_Penalty_Neutral>
1.34373e-05

> <r_epik_State_Penalty>
-0

> <r_epik_Charging_Adjusted_Penalty>
0

> <i_epik_Tot_Q>
0

> <i_epik_Tot_abs_Q>
0

> <r_epik_Metal_State_Penalty>
-0

> <b_epik_Metal_Only>
0

> <s_lp_Force_Field>
OPLS_2005

> <r_lp_Energy>
3.15153

> <b_lp_Chiralities_Consistent>
1

> <s_lp_Variant>
AV-unprocessed.smi:1511-2

> <Gold.Version>
5.8.1

> <Gold.Id.Protein>
6NUR|6NUR_protein|mol2

> <Gold.PLP.Fitness>
43.2951

> <Gold.PLP.PLP>
-34.3814

> <Gold.PLP.part.hbond>
-3.0000

> <Gold.PLP.part.metal>
0.0000

> <Gold.PLP.part.buried>
-4.2146

> <Gold.PLP.part.nonpolar>
-28.6111

> <Gold.PLP.part.repulsive>
2.1994

> <Gold.PLP.ligand.clash>
0.0000

> <Gold.PLP.ligand.torsion>
0.2046

> <Gold.PLP.Chemscore.Hbond>
2.1052

> <Gold.PLP.Chemscore.CHOScore>
1.0000

> <Gold.PLP.Chemscore.Metal>
0.0000

> <Gold.Chemscore.Hbonds>
donor molecule, donor type, donor heavy atom, donor atom, acceptor molecule, acceptor atom, score
      P1  H  7989  7998       L1    15  0.25
      P1  H  7997  8008       L1     1  0.93
      P1  H  8011  8017       L1    15  0.91
      L1  C     7    22       P1  8028  1.00

> <Gold.PLP.Chemscore.Internal.Correction>
0.0074

> <Gold.Rescore>
     Score         DG    S(hbond)    S(metal)    S(lipo)     H(rot)  DE(clash)    DE(int)     intcor
     14.82     -16.28       1.86        0.00      78.99       1.82       1.28       0.17       ----

> <Gold.Chemscore.Fitness>
14.8241

> <Gold.Chemscore.DG>
-16.2761

> <Gold.Chemscore.ZeroCoef>
-5.4800

> <Gold.Chemscore.Hbond>
1.8586

> <Gold.Chemscore.Metal>
0.0000

> <Gold.Chemscore.Lipo>
78.9927

> <Gold.Chemscore.Internal_Hbond>
0.0000

> <Gold.Chemscore.DEClash>
1.2821

> <Gold.Chemscore.DEInternal>
0.1699

> <Gold.Chemscore.Rot>
1.8178

> <Gold.Chemscore.Internal.Correction>
   9.000000E+99

> <Gold.Chemscore.Hbonds>
donor molecule, donor type, donor heavy atom, donor atom, acceptor molecule, acceptor atom, score
      P1  H  7989  7998       L1    15  0.07
      P1  H  7997  8008       L1     1  0.89
      P1  H  8011  8017       L1    15  0.88

> <Gold.Chemscore.Hbond.Weighted>
-6.2077

> <Gold.Chemscore.Metal.Weighted>
-0.0000

> <Gold.Chemscore.Lipo.Weighted>
-9.2421

> <Gold.Chemscore.Internal_Hbond.Weighted>
0.0000

> <Gold.Chemscore.DEClash.Weighted>
1.2821

> <Gold.Chemscore.DEInternal.Weighted>
0.1699

> <Gold.Chemscore.Rot.Weighted>
4.6537

> <Gold.Chemscore.Internal.Correction.Weighted>
   9.000000E+99

> <Gold.Protein.RotatedTorsions>
[ 6907 6896 6895 6894 ] final  131.50 input  -60.11 | X-H torsion
[ 7974 7965 7964 7962 ] final -171.37 input  175.53 | X-H torsion
[ 8008 7997 7996 7995 ] final -116.21 input   59.86 | X-H torsion
[ 10167 10162 10161 10158 ] final  165.53 input  -65.29 | X-H torsion
[ 10718 10713 10712 10709 ] final   70.98 input   66.30 | X-H torsion
[ 10763 10752 10751 10750 ] final  128.82 input  -60.55 | X-H torsion
[ 11005 11000 10999 10996 ] final  134.93 input  -57.11 | X-H torsion

> <Gold.Protein.ActiveResidues>
 VAL166  LYS551  ARG553  GLY616  TRP617  ASP618  TYR619  PRO620  LYS621  CYS622 
 ASP623  PHE694  ASN695  SER759  ASP760  ASP761  ALA762  ILE779  LEU786  VAL792 
 PHE793  MET794  SER795  GLU796  ALA797  LYS798  CYS799  TRP800  GLU811  SER814 

> <Gold.Protein.RotatedAtoms>
  152.3420  133.6077  159.5882 H   0  0  0  0  0  0  0  0  0  0  0  0  # atno 6907 bound_to 6896
  150.7484  133.9708  159.3554 H   0  0  0  0  0  0  0  0  0  0  0  0  # atno 6908 bound_to 6896
  151.7571  135.0820  160.0391 H   0  0  0  0  0  0  0  0  0  0  0  0  # atno 6909 bound_to 6896
  144.7158  140.1932  143.6346 H   0  0  0  0  0  0  0  0  0  0  0  0  # atno 7974 bound_to 7965
  155.0643  140.0393  157.2587 H   0  0  0  0  0  0  0  0  0  0  0  0  # atno 8008 bound_to 7997
  154.7034  140.2678  155.6673 H   0  0  0  0  0  0  0  0  0  0  0  0  # atno 8009 bound_to 7997
  156.2767  140.2736  156.1652 H   0  0  0  0  0  0  0  0  0  0  0  0  # atno 8010 bound_to 7997
  139.4907  144.4122  151.9286 H   0  0  0  0  0  0  0  0  0  0  0  0  # atno 10167 bound_to 10162
  157.6428  130.9505  150.0726 H   0  0  0  0  0  0  0  0  0  0  0  0  # atno 10718 bound_to 10713
  153.7318  135.3237  155.3287 H   0  0  0  0  0  0  0  0  0  0  0  0  # atno 10763 bound_to 10752
  154.8323  135.4524  154.1114 H   0  0  0  0  0  0  0  0  0  0  0  0  # atno 10764 bound_to 10752
  153.2264  135.6954  153.8022 H   0  0  0  0  0  0  0  0  0  0  0  0  # atno 10765 bound_to 10752
  139.9946  134.9502  156.9935 H   0  0  0  0  0  0  0  0  0  0  0  0  # atno 11005 bound_to 11000
  145.8749  139.2291  143.1639 LP  0  0  0  0  0  0  0  0  0  0  0  0  # atno 17320 bound_to 7965
  146.0050  140.8486  142.9999 LP  0  0  0  0  0  0  0  0  0  0  0  0  # atno 17321 bound_to 7965
  140.3564  144.3027  150.5940 LP  0  0  0  0  0  0  0  0  0  0  0  0  # atno 17342 bound_to 10162
  140.5441  143.2218  151.8036 LP  0  0  0  0  0  0  0  0  0  0  0  0  # atno 17343 bound_to 10162
  156.1726  130.3647  149.9144 LP  0  0  0  0  0  0  0  0  0  0  0  0  # atno 17370 bound_to 10713
  156.7116  130.8972  151.3610 LP  0  0  0  0  0  0  0  0  0  0  0  0  # atno 17371 bound_to 10713
  140.4842  134.1259  155.7222 LP  0  0  0  0  0  0  0  0  0  0  0  0  # atno 17394 bound_to 11000
  141.1594  133.8821  157.1889 LP  0  0  0  0  0  0  0  0  0  0  0  0  # atno 17395 bound_to 11000

$$$$
