AV-unprocessed.smi:232|AV-procd|sdf|1777|dock1
  -GOLD-   2262020323D 1   1.00000     0.00000
 Structure written by MMmdl.
 52 55  0  0  0  0  0  0  0  0  1 V2000
  152.0543  145.0254  158.6622 C   0  0  0  0  0  0  0  0  0  0  0  0
  151.9047  143.7130  157.8834 C   0  0  0  0  0  0  0  0  0  0  0  0
  151.7250  142.4840  158.7986 C   0  0  2  0  0  0  0  0  0  0  0  0
  152.2653  142.6817  160.2227 C   0  0  0  0  0  0  0  0  0  0  0  0
  152.7597  141.2951  160.6527 C   0  0  0  0  0  0  0  0  0  0  0  0
  152.4745  140.3921  159.4474 C   0  0  2  0  0  0  0  0  0  0  0  0
  153.4998  139.2599  159.2712 C   0  0  0  0  0  0  0  0  0  0  0  0
  152.4235  141.3010  158.3091 N   0  0  0  0  0  0  0  0  0  0  0  0
  151.9408  140.7668  157.1631 C   0  0  0  0  0  0  0  0  0  0  0  0
  152.7098  139.9378  156.4082 N   0  0  0  0  0  0  0  0  0  0  0  0
  152.2208  139.4226  155.2757 C   0  0  0  0  0  0  0  0  0  0  0  0
  151.0163  139.6021  154.7277 N   0  0  0  0  0  0  0  0  0  0  0  0
  150.2452  140.4323  155.4877 C   0  0  0  0  0  0  0  0  0  0  0  0
  150.6274  141.0520  156.7094 C   0  0  0  0  0  0  0  0  0  0  0  0
  149.5849  141.8274  157.2005 N   0  0  0  0  0  0  0  0  0  0  0  0
  148.6352  141.6727  156.3180 C   0  0  0  0  0  0  0  0  0  0  0  0
  148.9469  140.8515  155.2581 N   0  0  0  0  0  0  0  0  0  0  0  0
  148.0798  140.5069  154.1456 C   0  0  0  0  0  0  0  0  0  0  0  0
  147.8613  138.9863  154.0176 C   0  0  2  0  0  0  0  0  0  0  0  0
  149.0361  138.3861  153.5057 O   0  0  0  0  0  0  0  0  0  0  0  0
  146.6802  138.6440  153.0906 C   0  0  1  0  0  0  0  0  0  0  0  0
  146.9555  138.8744  151.6030 C   0  0  0  0  0  0  0  0  0  0  0  0
  145.9680  137.9303  150.9573 C   0  0  0  0  0  0  0  0  0  0  0  0
  146.0223  136.7331  151.9002 C   0  0  0  0  0  0  0  0  0  0  0  0
  146.3636  137.2560  153.1814 O   0  0  0  0  0  0  0  0  0  0  0  0
  152.1370  145.8721  157.9804 H   0  0  0  0  0  0  0  0  0  0  0  0
  152.9459  145.0185  159.2897 H   0  0  0  0  0  0  0  0  0  0  0  0
  151.1921  145.2003  159.3061 H   0  0  0  0  0  0  0  0  0  0  0  0
  151.0442  143.8075  157.2201 H   0  0  0  0  0  0  0  0  0  0  0  0
  152.7710  143.5707  157.2362 H   0  0  0  0  0  0  0  0  0  0  0  0
  150.6611  142.2495  158.8679 H   0  0  0  0  0  0  0  0  0  0  0  0
  153.1011  143.3826  160.2297 H   0  0  0  0  0  0  0  0  0  0  0  0
  151.4986  143.0737  160.8916 H   0  0  0  0  0  0  0  0  0  0  0  0
  153.8289  141.3382  160.8652 H   0  0  0  0  0  0  0  0  0  0  0  0
  152.2569  140.9346  161.5505 H   0  0  0  0  0  0  0  0  0  0  0  0
  151.4862  139.9499  159.5849 H   0  0  0  0  0  0  0  0  0  0  0  0
  153.5468  138.6362  160.1637 H   0  0  0  0  0  0  0  0  0  0  0  0
  154.4989  139.6559  159.0870 H   0  0  0  0  0  0  0  0  0  0  0  0
  153.2384  138.6130  158.4333 H   0  0  0  0  0  0  0  0  0  0  0  0
  152.8903  138.7740  154.7306 H   0  0  0  0  0  0  0  0  0  0  0  0
  147.6735  142.1552  156.4170 H   0  0  0  0  0  0  0  0  0  0  0  0
  147.1263  141.0154  154.2929 H   0  0  0  0  0  0  0  0  0  0  0  0
  148.5081  140.9123  153.2280 H   0  0  0  0  0  0  0  0  0  0  0  0
  147.6743  138.5659  155.0067 H   0  0  0  0  0  0  0  0  0  0  0  0
  148.7855  137.7007  152.9051 H   0  0  0  0  0  0  0  0  0  0  0  0
  145.7915  139.2068  153.3821 H   0  0  0  0  0  0  0  0  0  0  0  0
  146.8141  139.9120  151.2991 H   0  0  0  0  0  0  0  0  0  0  0  0
  147.9745  138.5790  151.3478 H   0  0  0  0  0  0  0  0  0  0  0  0
  144.9698  138.3703  150.9639 H   0  0  0  0  0  0  0  0  0  0  0  0
  146.2246  137.6759  149.9286 H   0  0  0  0  0  0  0  0  0  0  0  0
  145.0790  136.1875  151.9320 H   0  0  0  0  0  0  0  0  0  0  0  0
  146.8048  136.0391  151.5913 H   0  0  0  0  0  0  0  0  0  0  0  0
  1  2  1  0  0  0  0
  1 26  1  0  0  0  0
  1 27  1  0  0  0  0
  1 28  1  0  0  0  0
  2  3  1  0  0  0  0
  2 29  1  0  0  0  0
  2 30  1  0  0  0  0
  3  8  1  0  0  0  0
  3  4  1  0  0  0  0
  3 31  1  0  0  0  0
  4  5  1  0  0  0  0
  4 32  1  0  0  0  0
  4 33  1  0  0  0  0
  5  6  1  0  0  0  0
  5 34  1  0  0  0  0
  5 35  1  0  0  0  0
  6  7  1  0  0  0  0
  6  8  1  0  0  0  0
  6 36  1  0  0  0  0
  7 37  1  0  0  0  0
  7 38  1  0  0  0  0
  7 39  1  0  0  0  0
  8  9  1  0  0  0  0
  9 14  1  0  0  0  0
  9 10  2  0  0  0  0
 10 11  1  0  0  0  0
 11 12  2  0  0  0  0
 11 40  1  0  0  0  0
 12 13  1  0  0  0  0
 13 17  1  0  0  0  0
 13 14  2  0  0  0  0
 14 15  1  0  0  0  0
 15 16  2  0  0  0  0
 16 17  1  0  0  0  0
 16 41  1  0  0  0  0
 17 18  1  0  0  0  0
 18 19  1  0  0  0  0
 18 42  1  0  0  0  0
 18 43  1  0  0  0  0
 19 20  1  0  0  0  0
 19 21  1  0  0  0  0
 19 44  1  0  0  0  0
 20 45  1  0  0  0  0
 21 25  1  0  0  0  0
 21 22  1  0  0  0  0
 21 46  1  0  0  0  0
 22 23  1  0  0  0  0
 22 47  1  0  0  0  0
 22 48  1  0  0  0  0
 23 24  1  0  0  0  0
 23 49  1  0  0  0  0
 23 50  1  0  0  0  0
 24 25  1  0  0  0  0
 24 51  1  0  0  0  0
 24 52  1  0  0  0  0
M  END
> <s_m_source_file>
AV-unprocessed.smi

> <i_m_source_file_index>
232

> <i_lp_mmshare_version>
43012

> <i_f3d_flags>
0

> <s_epik_input>
W0NIM11bQ0gyXVtDQEBIXTFbQ0gyXVtDSDJdW0NAQEhdKFtDSDNdKU4xYyhuW2NIXW4yKWMoYzIzKW5bY0hdbjNbQ0gyXVtDQEhdKFtPSF0pW0NAQEhdNFtDSDJdW0NIMl1bQ0gyXU80

> <s_epik_cmdline>
J2VwaWtfcHl0aG9uJywgJy1waCcsICc3LjAnLCAnLXRuJywgJzgnLCAnLW1hJywgJzIwMCcsICctbWV0YWxfYmluZGluZycsICctaW1hZScsICc8aW5maWxlLm1hZT4nLCAnLW9tYWUnLCAnPG91dGZpbGUubWFlPic=

> <r_lp_tautomer_probability>
1

> <r_epik_Ionization_Penalty>
0.00258048

> <r_epik_Ionization_Penalty_Charging>
0

> <r_epik_Ionization_Penalty_Neutral>
0.00258048

> <r_epik_State_Penalty>
0.00168551

> <r_epik_Charging_Adjusted_Penalty>
0.00168551

> <i_epik_Tot_Q>
0

> <i_epik_Tot_abs_Q>
0

> <r_epik_Metal_State_Penalty>
-0

> <b_epik_Metal_Only>
0

> <s_lp_Force_Field>
OPLS_2005

> <r_lp_Energy>
51.1515

> <b_lp_Chiralities_Consistent>
1

> <s_lp_Variant>
AV-unprocessed.smi:232-11

> <Gold.Version>
5.8.1

> <Gold.Id.Protein>
6NUR|6NUR_protein|mol2

> <Gold.PLP.Fitness>
50.3972

> <Gold.PLP.PLP>
-44.4014

> <Gold.PLP.part.hbond>
-4.0000

> <Gold.PLP.part.metal>
0.0000

> <Gold.PLP.part.buried>
5.5804

> <Gold.PLP.part.nonpolar>
-46.0070

> <Gold.PLP.part.repulsive>
0.3856

> <Gold.PLP.ligand.clash>
0.0000

> <Gold.PLP.ligand.torsion>
1.2283

> <Gold.PLP.Chemscore.Hbond>
2.6300

> <Gold.PLP.Chemscore.CHOScore>
0.0908

> <Gold.PLP.Chemscore.Metal>
0.0000

> <Gold.Chemscore.Hbonds>
donor molecule, donor type, donor heavy atom, donor atom, acceptor molecule, acceptor atom, score
      L1  H    20    45       P1  7948  1.00
      P1  H  7989  7998       L1    12  0.62
      P1  H  7997  8009       L1    10  1.00
      L1  C    16    41       P1  8028  0.01

> <Gold.PLP.Chemscore.Internal.Correction>
0.2900

> <Gold.Rescore>
     Score         DG    S(hbond)    S(metal)    S(lipo)     H(rot)  DE(clash)    DE(int)     intcor
     14.26     -19.17       1.85        0.00     117.24       2.43       2.06       2.84       ----

> <Gold.Chemscore.Fitness>
14.2614

> <Gold.Chemscore.DG>
-19.1669

> <Gold.Chemscore.ZeroCoef>
-5.4800

> <Gold.Chemscore.Hbond>
1.8504

> <Gold.Chemscore.Metal>
0.0000

> <Gold.Chemscore.Lipo>
117.2413

> <Gold.Chemscore.Internal_Hbond>
0.0000

> <Gold.Chemscore.DEClash>
2.0634

> <Gold.Chemscore.DEInternal>
2.8422

> <Gold.Chemscore.Rot>
2.4260

> <Gold.Chemscore.Internal.Correction>
   9.000000E+99

> <Gold.Chemscore.Hbonds>
donor molecule, donor type, donor heavy atom, donor atom, acceptor molecule, acceptor atom, score
      L1  H    20    45       P1  7948  0.99
      P1  H  7989  7998       L1    12  0.01
      P1  H  7997  8009       L1    10  0.88

> <Gold.Chemscore.Hbond.Weighted>
-6.1804

> <Gold.Chemscore.Metal.Weighted>
-0.0000

> <Gold.Chemscore.Lipo.Weighted>
-13.7172

> <Gold.Chemscore.Internal_Hbond.Weighted>
0.0000

> <Gold.Chemscore.DEClash.Weighted>
2.0634

> <Gold.Chemscore.DEInternal.Weighted>
2.8422

> <Gold.Chemscore.Rot.Weighted>
6.2107

> <Gold.Chemscore.Internal.Correction.Weighted>
   9.000000E+99

> <Gold.Protein.RotatedTorsions>
[ 6907 6896 6895 6894 ] final -100.73 input  -60.11 | X-H torsion
[ 7974 7965 7964 7962 ] final  -61.86 input  175.53 | X-H torsion
[ 8008 7997 7996 7995 ] final -179.83 input   59.86 | X-H torsion
[ 10167 10162 10161 10158 ] final  -66.44 input  -65.29 | X-H torsion
[ 10718 10713 10712 10709 ] final  121.20 input   66.30 | X-H torsion
[ 10763 10752 10751 10750 ] final -169.91 input  -60.55 | X-H torsion
[ 11005 11000 10999 10996 ] final   97.54 input  -57.11 | X-H torsion

> <Gold.Protein.ActiveResidues>
 VAL166  LYS551  ARG553  GLY616  TRP617  ASP618  TYR619  PRO620  LYS621  CYS622 
 ASP623  PHE694  ASN695  SER759  ASP760  ASP761  ALA762  ILE779  LEU786  VAL792 
 PHE793  MET794  SER795  GLU796  ALA797  LYS798  CYS799  TRP800  GLU811  SER814 

> <Gold.Protein.RotatedAtoms>
  150.7127  134.0843  159.3908 H   0  0  0  0  0  0  0  0  0  0  0  0  # atno 6907 bound_to 6896
  151.8827  135.0445  160.0499 H   0  0  0  0  0  0  0  0  0  0  0  0  # atno 6908 bound_to 6896
  152.2555  133.5216  159.5387 H   0  0  0  0  0  0  0  0  0  0  0  0  # atno 6909 bound_to 6896
  145.7984  140.8669  143.0244 H   0  0  0  0  0  0  0  0  0  0  0  0  # atno 7974 bound_to 7965
  156.0351  140.1290  157.0217 H   0  0  0  0  0  0  0  0  0  0  0  0  # atno 8008 bound_to 7997
  154.4366  140.1041  156.6226 H   0  0  0  0  0  0  0  0  0  0  0  0  # atno 8009 bound_to 7997
  155.5750  140.3467  155.4527 H   0  0  0  0  0  0  0  0  0  0  0  0  # atno 8010 bound_to 7997
  140.5657  143.2314  151.6640 H   0  0  0  0  0  0  0  0  0  0  0  0  # atno 10167 bound_to 10162
  157.5835  131.1072  150.8141 H   0  0  0  0  0  0  0  0  0  0  0  0  # atno 10718 bound_to 10713
  154.6473  135.2906  155.0031 H   0  0  0  0  0  0  0  0  0  0  0  0  # atno 10763 bound_to 10752
  154.1136  135.6559  153.4893 H   0  0  0  0  0  0  0  0  0  0  0  0  # atno 10764 bound_to 10752
  153.0357  135.5271  154.7365 H   0  0  0  0  0  0  0  0  0  0  0  0  # atno 10765 bound_to 10752
  139.8775  134.9006  156.4323 H   0  0  0  0  0  0  0  0  0  0  0  0  # atno 11005 bound_to 11000
  144.6772  140.0223  143.7483 LP  0  0  0  0  0  0  0  0  0  0  0  0  # atno 17320 bound_to 7965
  145.9904  139.3010  143.0988 LP  0  0  0  0  0  0  0  0  0  0  0  0  # atno 17321 bound_to 7965
  139.5092  144.3586  152.0584 LP  0  0  0  0  0  0  0  0  0  0  0  0  # atno 17342 bound_to 10162
  140.2717  144.3956  150.6149 LP  0  0  0  0  0  0  0  0  0  0  0  0  # atno 17343 bound_to 10162
  156.8581  130.5103  149.5306 LP  0  0  0  0  0  0  0  0  0  0  0  0  # atno 17370 bound_to 10713
  156.0882  130.5875  150.9686 LP  0  0  0  0  0  0  0  0  0  0  0  0  # atno 17371 bound_to 10713
  140.9058  133.7747  155.9733 LP  0  0  0  0  0  0  0  0  0  0  0  0  # atno 17394 bound_to 11000
  140.8601  134.2851  157.5238 LP  0  0  0  0  0  0  0  0  0  0  0  0  # atno 17395 bound_to 11000

$$$$
