AV-unprocessed.smi:193|AV-procd|sdf|1504|dock7
  -GOLD-   2262019333D 1   1.00000     0.00000
 Structure written by MMmdl.
 62 66  0  0  0  0  0  0  0  0  2 V2000
  146.4598  136.4063  157.0150 C   0  0  0  0  0  0  0  0  0  0  0  0
  147.8949  136.0092  156.6323 C   0  0  2  0  0  0  0  0  0  0  0  0
  148.7827  137.2708  156.5891 C   0  0  0  0  0  0  0  0  0  0  0  0
  150.2125  137.0065  156.7648 N   0  0  0  0  0  0  0  0  0  0  0  0
  151.0119  138.0339  157.1546 C   0  0  0  0  0  0  0  0  0  0  0  0
  152.1270  137.7626  157.8836 N   0  0  0  0  0  0  0  0  0  0  0  0
  152.9222  138.7536  158.2973 C   0  0  0  0  0  0  0  0  0  0  0  0
  152.7923  140.0658  158.0969 N   0  0  0  0  0  0  0  0  0  0  0  0
  151.6820  140.3463  157.3571 C   0  0  0  0  0  0  0  0  0  0  0  0
  150.7498  139.4001  156.8440 C   0  0  0  0  0  0  0  0  0  0  0  0
  149.7625  140.0578  156.1181 N   0  0  0  0  0  0  0  0  0  0  0  0
  150.0844  141.3190  156.2099 C   0  0  0  0  0  0  0  0  0  0  0  0
  151.2142  141.5837  156.9502 N   0  0  0  0  0  0  0  0  0  0  0  0
  151.7872  142.8921  157.2270 C   0  0  0  0  0  0  0  0  0  0  0  0
  151.3542  143.4920  158.5886 C   0  0  0  0  0  0  0  0  0  0  0  0
  149.9805  143.1986  158.7752 O   0  0  0  0  0  0  0  0  0  0  0  0
  152.1489  142.8417  159.7387 C   0  0  0  0  0  0  0  0  0  0  0  0
  151.8810  143.5262  161.0908 C   0  0  0  0  0  0  0  0  0  0  0  0
  152.1560  144.9182  160.9941 O   0  0  0  0  0  0  0  0  0  0  0  0
  151.3078  145.5818  160.0654 C   0  0  0  0  0  0  0  0  0  0  0  0
  151.5349  145.0250  158.6487 C   0  0  0  0  0  0  0  0  0  0  0  0
  150.8597  135.8090  156.2300 C   0  0  0  0  0  0  0  0  0  0  0  0
  150.3180  135.3828  154.8598 C   0  0  0  0  0  0  0  0  0  0  0  0
  149.1286  134.5100  155.0014 N   0  3  2  0  0  0  0  0  0  0  0  0
  148.9765  133.6041  153.8384 C   0  0  2  0  0  0  0  0  0  0  0  0
  147.9634  132.5005  154.0446 C   0  0  0  0  0  0  0  0  0  0  0  0
  149.4412  132.1769  154.0711 C   0  0  2  0  0  0  0  0  0  0  0  0
  150.0965  131.7092  155.3582 C   0  0  0  0  0  0  0  0  0  0  0  0
  147.8801  135.2613  155.2804 C   0  0  0  0  0  0  0  0  0  0  0  0
  146.0271  137.0877  156.2815 H   0  0  0  0  0  0  0  0  0  0  0  0
  146.4334  136.9021  157.9858 H   0  0  0  0  0  0  0  0  0  0  0  0
  145.8111  135.5324  157.0823 H   0  0  0  0  0  0  0  0  0  0  0  0
  148.2537  135.3385  157.4148 H   0  0  0  0  0  0  0  0  0  0  0  0
  148.6195  137.8217  155.6618 H   0  0  0  0  0  0  0  0  0  0  0  0
  148.4748  137.9363  157.3974 H   0  0  0  0  0  0  0  0  0  0  0  0
  153.7848  138.4530  158.8736 H   0  0  0  0  0  0  0  0  0  0  0  0
  149.4960  142.0976  155.7460 H   0  0  0  0  0  0  0  0  0  0  0  0
  152.8741  142.8094  157.1761 H   0  0  0  0  0  0  0  0  0  0  0  0
  151.4971  143.5618  156.4163 H   0  0  0  0  0  0  0  0  0  0  0  0
  149.9027  142.3161  159.1039 H   0  0  0  0  0  0  0  0  0  0  0  0
  151.9210  141.7771  159.8071 H   0  0  0  0  0  0  0  0  0  0  0  0
  153.2163  142.9111  159.5241 H   0  0  0  0  0  0  0  0  0  0  0  0
  150.8515  143.3684  161.4163 H   0  0  0  0  0  0  0  0  0  0  0  0
  152.5230  143.0954  161.8592 H   0  0  0  0  0  0  0  0  0  0  0  0
  150.2647  145.4758  160.3670 H   0  0  0  0  0  0  0  0  0  0  0  0
  151.5334  146.6480  160.0853 H   0  0  0  0  0  0  0  0  0  0  0  0
  152.5476  145.2800  158.3343 H   0  0  0  0  0  0  0  0  0  0  0  0
  150.8617  145.5245  157.9511 H   0  0  0  0  0  0  0  0  0  0  0  0
  151.9252  136.0014  156.1006 H   0  0  0  0  0  0  0  0  0  0  0  0
  150.7844  134.9945  156.9515 H   0  0  0  0  0  0  0  0  0  0  0  0
  150.1189  136.2361  154.2092 H   0  0  0  0  0  0  0  0  0  0  0  0
  151.1048  134.8096  154.3682 H   0  0  0  0  0  0  0  0  0  0  0  0
  149.0832  134.0671  152.8587 H   0  0  0  0  0  0  0  0  0  0  0  0
  147.4217  132.4675  154.9883 H   0  0  0  0  0  0  0  0  0  0  0  0
  147.3984  132.1688  153.1756 H   0  0  0  0  0  0  0  0  0  0  0  0
  149.8300  131.6706  153.1899 H   0  0  0  0  0  0  0  0  0  0  0  0
  149.6228  132.1555  156.2330 H   0  0  0  0  0  0  0  0  0  0  0  0
  151.1541  131.9732  155.3597 H   0  0  0  0  0  0  0  0  0  0  0  0
  150.0130  130.6256  155.4433 H   0  0  0  0  0  0  0  0  0  0  0  0
  147.0591  134.5433  155.2934 H   0  0  0  0  0  0  0  0  0  0  0  0
  147.6666  135.9485  154.4600 H   0  0  0  0  0  0  0  0  0  0  0  0
  149.2989  133.9123  155.7975 H   0  0  0  0  0  0  0  0  0  0  0  0
  1  2  1  0  0  0  0
  1 30  1  0  0  0  0
  1 31  1  0  0  0  0
  1 32  1  0  0  0  0
  2 29  1  0  0  0  0
  2  3  1  0  0  0  0
  2 33  1  0  0  0  0
  3  4  1  0  0  0  0
  3 34  1  0  0  0  0
  3 35  1  0  0  0  0
  4  5  1  0  0  0  0
  4 22  1  0  0  0  0
  5 10  1  0  0  0  0
  5  6  2  0  0  0  0
  6  7  1  0  0  0  0
  7  8  2  0  0  0  0
  7 36  1  0  0  0  0
  8  9  1  0  0  0  0
  9 13  1  0  0  0  0
  9 10  2  0  0  0  0
 10 11  1  0  0  0  0
 11 12  2  0  0  0  0
 12 13  1  0  0  0  0
 12 37  1  0  0  0  0
 13 14  1  0  0  0  0
 14 15  1  0  0  0  0
 14 38  1  0  0  0  0
 14 39  1  0  0  0  0
 15 21  1  0  0  0  0
 15 16  1  0  0  0  0
 15 17  1  0  0  0  0
 16 40  1  0  0  0  0
 17 18  1  0  0  0  0
 17 41  1  0  0  0  0
 17 42  1  0  0  0  0
 18 19  1  0  0  0  0
 18 43  1  0  0  0  0
 18 44  1  0  0  0  0
 19 20  1  0  0  0  0
 20 21  1  0  0  0  0
 20 45  1  0  0  0  0
 20 46  1  0  0  0  0
 21 47  1  0  0  0  0
 21 48  1  0  0  0  0
 22 23  1  0  0  0  0
 22 49  1  0  0  0  0
 22 50  1  0  0  0  0
 23 24  1  0  0  0  0
 23 51  1  0  0  0  0
 23 52  1  0  0  0  0
 24 25  1  0  0  0  0
 24 29  1  0  0  0  0
 24 62  1  0  0  0  0
 25 27  1  0  0  0  0
 25 26  1  0  0  0  0
 25 53  1  0  0  0  0
 26 27  1  0  0  0  0
 26 54  1  0  0  0  0
 26 55  1  0  0  0  0
 27 28  1  0  0  0  0
 27 56  1  0  0  0  0
 28 57  1  0  0  0  0
 28 58  1  0  0  0  0
 28 59  1  0  0  0  0
 29 60  1  0  0  0  0
 29 61  1  0  0  0  0
M  CHG  1  24   1
M  END
> <s_m_source_file>
AV-unprocessed.smi

> <i_m_source_file_index>
193

> <i_lp_mmshare_version>
43012

> <i_f3d_flags>
0

> <s_epik_input>
W0NIM11bQ0BASF0xW0NIMl1bQ0BIXTFOKFtDSDJdMilbQ0gyXVtDSDJdTihbQ0gyXVtDQEhdMltDSDNdKWMobltjSF1uMyljKGMzNCluW2NIXW40W0NIMl1DNShbT0hdKVtDSDJdW0NIMl1PW0NIMl1bQ0gyXTU=

> <s_epik_cmdline>
J2VwaWtfcHl0aG9uJywgJy1waCcsICc3LjAnLCAnLXRuJywgJzgnLCAnLW1hJywgJzIwMCcsICctbWV0YWxfYmluZGluZycsICctaW1hZScsICc8aW5maWxlLm1hZT4nLCAnLW9tYWUnLCAnPG91dGZpbGUubWFlPic=

> <r_lp_tautomer_probability>
1

> <r_epik_Ionization_Penalty>
0.0540825

> <r_epik_Ionization_Penalty_Charging>
0.0538476

> <r_epik_Ionization_Penalty_Neutral>
0.000234891

> <r_epik_State_Penalty>
0.0200719

> <r_epik_Charging_Adjusted_Penalty>
0.0739194

> <i_epik_Tot_Q>
1

> <i_epik_Tot_abs_Q>
1

> <r_epik_Metal_State_Penalty>
0.0199414

> <b_epik_Metal_Only>
0

> <s_lp_Force_Field>
OPLS_2005

> <r_lp_Energy>
56.2911

> <b_lp_Chiralities_Consistent>
1

> <s_lp_Variant>
AV-unprocessed.smi:193-9

> <Gold.Version>
5.8.1

> <Gold.Id.Protein>
6NUR|6NUR_protein|mol2

> <Gold.PLP.Fitness>
41.6644

> <Gold.PLP.PLP>
-40.6380

> <Gold.PLP.part.hbond>
-1.0000

> <Gold.PLP.part.metal>
0.0000

> <Gold.PLP.part.buried>
-4.8668

> <Gold.PLP.part.nonpolar>
-34.7459

> <Gold.PLP.part.repulsive>
0.2121

> <Gold.PLP.ligand.clash>
0.0000

> <Gold.PLP.ligand.torsion>
1.8358

> <Gold.PLP.Chemscore.Hbond>
0.5321

> <Gold.PLP.Chemscore.CHOScore>
0.5947

> <Gold.PLP.Chemscore.Metal>
0.0000

> <Gold.Chemscore.Hbonds>
donor molecule, donor type, donor heavy atom, donor atom, acceptor molecule, acceptor atom, score
      P1  H  7997  8008       L1     8  0.48
      L1  C    12    37       P1  8028  0.60

> <Gold.PLP.Chemscore.Internal.Correction>
1.3175

> <Gold.Rescore>
     Score         DG    S(hbond)    S(metal)    S(lipo)     H(rot)  DE(clash)    DE(int)     intcor
      9.65     -13.99       0.29        0.00     106.72       1.93       1.55       2.79       ----

> <Gold.Chemscore.Fitness>
9.6475

> <Gold.Chemscore.DG>
-13.9937

> <Gold.Chemscore.ZeroCoef>
-5.4800

> <Gold.Chemscore.Hbond>
0.2893

> <Gold.Chemscore.Metal>
0.0000

> <Gold.Chemscore.Lipo>
106.7168

> <Gold.Chemscore.Internal_Hbond>
0.0000

> <Gold.Chemscore.DEClash>
1.5511

> <Gold.Chemscore.DEInternal>
2.7950

> <Gold.Chemscore.Rot>
1.9290

> <Gold.Chemscore.Internal.Correction>
   9.000000E+99

> <Gold.Chemscore.Hbonds>
donor molecule, donor type, donor heavy atom, donor atom, acceptor molecule, acceptor atom, score
      P1  H  7997  8008       L1     8  0.02

> <Gold.Chemscore.Hbond.Weighted>
-0.9661

> <Gold.Chemscore.Metal.Weighted>
-0.0000

> <Gold.Chemscore.Lipo.Weighted>
-12.4859

> <Gold.Chemscore.Internal_Hbond.Weighted>
0.0000

> <Gold.Chemscore.DEClash.Weighted>
1.5511

> <Gold.Chemscore.DEInternal.Weighted>
2.7950

> <Gold.Chemscore.Rot.Weighted>
4.9383

> <Gold.Chemscore.Internal.Correction.Weighted>
   9.000000E+99

> <Gold.Protein.RotatedTorsions>
[ 6907 6896 6895 6894 ] final   75.17 input  -60.11 | X-H torsion
[ 7974 7965 7964 7962 ] final   57.77 input  175.53 | X-H torsion
[ 8008 7997 7996 7995 ] final  -66.46 input   59.86 | X-H torsion
[ 10167 10162 10161 10158 ] final  -79.28 input  -65.29 | X-H torsion
[ 10718 10713 10712 10709 ] final   14.32 input   66.30 | X-H torsion
[ 10763 10752 10751 10750 ] final  -36.65 input  -60.55 | X-H torsion
[ 11005 11000 10999 10996 ] final   52.02 input  -57.11 | X-H torsion

> <Gold.Protein.ActiveResidues>
 VAL166  LYS551  ARG553  GLY616  TRP617  ASP618  TYR619  PRO620  LYS621  CYS622 
 ASP623  PHE694  ASN695  SER759  ASP760  ASP761  ALA762  ILE779  LEU786  VAL792 
 PHE793  MET794  SER795  GLU796  ALA797  LYS798  CYS799  TRP800  GLU811  SER814 

> <Gold.Protein.RotatedAtoms>
  152.5012  134.4161  159.9464 H   0  0  0  0  0  0  0  0  0  0  0  0  # atno 6907 bound_to 6896
  151.4131  133.3715  159.2754 H   0  0  0  0  0  0  0  0  0  0  0  0  # atno 6908 bound_to 6896
  150.9277  134.8715  159.7590 H   0  0  0  0  0  0  0  0  0  0  0  0  # atno 6909 bound_to 6896
  145.9255  139.3764  143.0453 H   0  0  0  0  0  0  0  0  0  0  0  0  # atno 7974 bound_to 7965
  154.4736  140.0912  156.7206 H   0  0  0  0  0  0  0  0  0  0  0  0  # atno 8008 bound_to 7997
  155.4657  140.3462  155.4300 H   0  0  0  0  0  0  0  0  0  0  0  0  # atno 8009 bound_to 7997
  156.1080  140.1440  156.9366 H   0  0  0  0  0  0  0  0  0  0  0  0  # atno 8010 bound_to 7997
  140.4608  143.2454  151.8352 H   0  0  0  0  0  0  0  0  0  0  0  0  # atno 10167 bound_to 10162
  157.0375  130.6217  149.5745 H   0  0  0  0  0  0  0  0  0  0  0  0  # atno 10718 bound_to 10713
  153.8833  135.6819  153.4765 H   0  0  0  0  0  0  0  0  0  0  0  0  # atno 10763 bound_to 10752
  153.1222  135.4735  154.9211 H   0  0  0  0  0  0  0  0  0  0  0  0  # atno 10764 bound_to 10752
  154.7658  135.3224  154.8240 H   0  0  0  0  0  0  0  0  0  0  0  0  # atno 10765 bound_to 10752
  140.0883  134.5243  155.8877 H   0  0  0  0  0  0  0  0  0  0  0  0  # atno 11005 bound_to 11000
  145.8495  140.9537  143.0757 LP  0  0  0  0  0  0  0  0  0  0  0  0  # atno 17320 bound_to 7965
  144.6758  140.0388  143.7481 LP  0  0  0  0  0  0  0  0  0  0  0  0  # atno 17321 bound_to 7965
  139.4806  144.5010  151.9060 LP  0  0  0  0  0  0  0  0  0  0  0  0  # atno 17342 bound_to 10162
  140.4096  144.2386  150.5889 LP  0  0  0  0  0  0  0  0  0  0  0  0  # atno 17343 bound_to 10162
  156.0049  130.5134  150.7794 LP  0  0  0  0  0  0  0  0  0  0  0  0  # atno 17370 bound_to 10713
  157.5130  131.0927  151.0174 LP  0  0  0  0  0  0  0  0  0  0  0  0  # atno 17371 bound_to 10713
  141.2070  133.6660  156.6276 LP  0  0  0  0  0  0  0  0  0  0  0  0  # atno 17394 bound_to 11000
  140.3388  134.7867  157.4382 LP  0  0  0  0  0  0  0  0  0  0  0  0  # atno 17395 bound_to 11000

$$$$
