AV-unprocessed.smi:2004|AV-procd|sdf|8121|dock7
  -GOLD-   2272010353D 1   1.00000     0.00000
 Structure written by MMmdl.
 39 41  0  0  0  0  0  0  0  0  1 V2000
  149.5630  140.8816  153.5575 O   0  0  0  0  0  0  0  0  0  0  0  0
  148.6467  141.6082  154.3496 C   0  0  2  0  0  0  0  0  0  0  0  0
  148.6103  140.9735  155.7518 C   0  0  0  0  0  0  0  0  0  0  0  0
  149.2421  141.8519  156.6685 O   0  0  0  0  0  0  0  0  0  0  0  0
  150.6230  141.5728  156.8349 C   0  0  0  0  0  0  0  0  0  0  0  0
  151.2702  142.5123  157.8340 C   0  0  0  0  0  0  0  0  0  0  0  0
  151.6639  142.0346  159.1021 C   0  0  0  0  0  0  0  0  0  0  0  0
  152.2790  142.9017  160.0262 C   0  0  0  0  0  0  0  0  0  0  0  0
  152.5078  144.2486  159.6841 C   0  0  0  0  0  0  0  0  0  0  0  0
  152.1233  144.7275  158.4167 C   0  0  0  0  0  0  0  0  0  0  0  0
  151.5084  143.8605  157.4921 C   0  0  0  0  0  0  0  0  0  0  0  0
  147.2900  141.5770  153.6183 C   0  0  0  0  0  0  0  0  0  0  0  0
  146.2642  142.3435  154.3026 N   0  0  0  0  0  0  0  0  0  0  0  0
  145.7423  142.0886  155.5178 C   0  0  0  0  0  0  0  0  0  0  0  0
  144.8079  142.9211  155.9674 N   0  0  0  0  0  0  0  0  0  0  0  0
  144.7149  143.8258  154.9238 C   0  0  0  0  0  0  0  0  0  0  0  0
  143.8969  144.9683  154.7714 C   0  0  0  0  0  0  0  0  0  0  0  0
  143.9758  145.7526  153.6021 C   0  0  0  0  0  0  0  0  0  0  0  0
  144.8713  145.4081  152.5690 C   0  0  0  0  0  0  0  0  0  0  0  0
  145.6960  144.2739  152.6974 C   0  0  0  0  0  0  0  0  0  0  0  0
  145.6151  143.4940  153.8663 C   0  0  0  0  0  0  0  0  0  0  0  0
  149.0731  140.3147  152.9812 H   0  0  0  0  0  0  0  0  0  0  0  0
  148.9892  142.6414  154.4217 H   0  0  0  0  0  0  0  0  0  0  0  0
  147.5800  140.8337  156.0801 H   0  0  0  0  0  0  0  0  0  0  0  0
  149.0837  139.9901  155.7488 H   0  0  0  0  0  0  0  0  0  0  0  0
  150.7573  140.5496  157.1887 H   0  0  0  0  0  0  0  0  0  0  0  0
  151.1317  141.6535  155.8728 H   0  0  0  0  0  0  0  0  0  0  0  0
  151.4943  141.0017  159.3688 H   0  0  0  0  0  0  0  0  0  0  0  0
  152.5767  142.5332  160.9967 H   0  0  0  0  0  0  0  0  0  0  0  0
  152.9800  144.9133  160.3923 H   0  0  0  0  0  0  0  0  0  0  0  0
  152.3012  145.7594  158.1526 H   0  0  0  0  0  0  0  0  0  0  0  0
  151.2193  144.2356  156.5213 H   0  0  0  0  0  0  0  0  0  0  0  0
  147.3958  141.9830  152.6112 H   0  0  0  0  0  0  0  0  0  0  0  0
  146.9428  140.5495  153.5033 H   0  0  0  0  0  0  0  0  0  0  0  0
  146.0665  141.2415  156.1046 H   0  0  0  0  0  0  0  0  0  0  0  0
  143.2075  145.2420  155.5564 H   0  0  0  0  0  0  0  0  0  0  0  0
  143.3459  146.6238  153.4975 H   0  0  0  0  0  0  0  0  0  0  0  0
  144.9247  146.0151  151.6769 H   0  0  0  0  0  0  0  0  0  0  0  0
  146.3812  144.0074  151.9066 H   0  0  0  0  0  0  0  0  0  0  0  0
  1  2  1  0  0  0  0
  1 22  1  0  0  0  0
  2  3  1  0  0  0  0
  2 12  1  0  0  0  0
  2 23  1  0  0  0  0
  3  4  1  0  0  0  0
  3 24  1  0  0  0  0
  3 25  1  0  0  0  0
  4  5  1  0  0  0  0
  5  6  1  0  0  0  0
  5 26  1  0  0  0  0
  5 27  1  0  0  0  0
  6 11  1  0  0  0  0
  6  7  2  0  0  0  0
  7  8  1  0  0  0  0
  7 28  1  0  0  0  0
  8  9  2  0  0  0  0
  8 29  1  0  0  0  0
  9 10  1  0  0  0  0
  9 30  1  0  0  0  0
 10 11  2  0  0  0  0
 10 31  1  0  0  0  0
 11 32  1  0  0  0  0
 12 13  1  0  0  0  0
 12 33  1  0  0  0  0
 12 34  1  0  0  0  0
 13 21  1  0  0  0  0
 13 14  1  0  0  0  0
 14 15  2  0  0  0  0
 14 35  1  0  0  0  0
 15 16  1  0  0  0  0
 16 21  2  0  0  0  0
 16 17  1  0  0  0  0
 17 18  2  0  0  0  0
 17 36  1  0  0  0  0
 18 19  1  0  0  0  0
 18 37  1  0  0  0  0
 19 20  2  0  0  0  0
 19 38  1  0  0  0  0
 20 21  1  0  0  0  0
 20 39  1  0  0  0  0
M  END
> <s_m_source_file>
AV-unprocessed.smi

> <i_m_source_file_index>
2004

> <i_lp_mmshare_version>
43012

> <i_f3d_flags>
0

> <s_epik_input>
W2NIXTFbY0hdW2NIXVtjSF1jKGMxMiluKFtjSF1uMilbQ0gyXVtDQEhdKFtPSF0pW0NIMl1PW0NIMl1jM1tjSF1bY0hdW2NIXVtjSF1bY0hdMw==

> <s_epik_cmdline>
J2VwaWtfcHl0aG9uJywgJy1waCcsICc3LjAnLCAnLXRuJywgJzgnLCAnLW1hJywgJzIwMCcsICctbWV0YWxfYmluZGluZycsICctaW1hZScsICc8aW5maWxlLm1hZT4nLCAnLW9tYWUnLCAnPG91dGZpbGUubWFlPic=

> <r_epik_Ionization_Penalty>
0.0713119

> <r_epik_Ionization_Penalty_Charging>
0

> <r_epik_Ionization_Penalty_Neutral>
0.0713119

> <r_epik_State_Penalty>
0.06259

> <r_epik_Charging_Adjusted_Penalty>
0.06259

> <i_epik_Tot_Q>
0

> <i_epik_Tot_abs_Q>
0

> <r_epik_Metal_State_Penalty>
6.60119e-05

> <b_epik_Metal_Only>
0

> <s_lp_Force_Field>
OPLS_2005

> <r_lp_Energy>
16.1981

> <b_lp_Chiralities_Consistent>
1

> <s_lp_Variant>
AV-unprocessed.smi:2004-1

> <Gold.Version>
5.8.1

> <Gold.Id.Protein>
6NUR|6NUR_protein|mol2

> <Gold.PLP.Fitness>
56.8822

> <Gold.PLP.PLP>
-54.4278

> <Gold.PLP.part.hbond>
-2.8999

> <Gold.PLP.part.metal>
0.0000

> <Gold.PLP.part.buried>
-5.4562

> <Gold.PLP.part.nonpolar>
-46.2899

> <Gold.PLP.part.repulsive>
0.2184

> <Gold.PLP.ligand.clash>
0.0000

> <Gold.PLP.ligand.torsion>
1.0554

> <Gold.PLP.Chemscore.Hbond>
1.4717

> <Gold.PLP.Chemscore.CHOScore>
0.0000

> <Gold.PLP.Chemscore.Metal>
0.0000

> <Gold.Chemscore.Hbonds>
donor molecule, donor type, donor heavy atom, donor atom, acceptor molecule, acceptor atom, score
      L1  H     1    22       P1  7957  0.43
      P1  H  7989  7998       L1     1  0.33
      P1  H  8011  8017       L1     1  0.57

> <Gold.PLP.Chemscore.Internal.Correction>
0.1502

> <Gold.Rescore>
     Score         DG    S(hbond)    S(metal)    S(lipo)     H(rot)  DE(clash)    DE(int)     intcor
     17.38     -19.21       1.00        0.00     139.92       2.33       0.23       1.60       ----

> <Gold.Chemscore.Fitness>
17.3798

> <Gold.Chemscore.DG>
-19.2136

> <Gold.Chemscore.ZeroCoef>
-5.4800

> <Gold.Chemscore.Hbond>
0.9953

> <Gold.Chemscore.Metal>
0.0000

> <Gold.Chemscore.Lipo>
139.9233

> <Gold.Chemscore.Internal_Hbond>
0.0000

> <Gold.Chemscore.DEClash>
0.2350

> <Gold.Chemscore.DEInternal>
1.5988

> <Gold.Chemscore.Rot>
2.3288

> <Gold.Chemscore.Internal.Correction>
   9.000000E+99

> <Gold.Chemscore.Hbonds>
donor molecule, donor type, donor heavy atom, donor atom, acceptor molecule, acceptor atom, score
      L1  H     1    22       P1  7957  0.42
      P1  H  7989  7998       L1     1  0.30
      P1  H  8011  8017       L1     1  0.01

> <Gold.Chemscore.Hbond.Weighted>
-3.3242

> <Gold.Chemscore.Metal.Weighted>
-0.0000

> <Gold.Chemscore.Lipo.Weighted>
-16.3710

> <Gold.Chemscore.Internal_Hbond.Weighted>
0.0000

> <Gold.Chemscore.DEClash.Weighted>
0.2350

> <Gold.Chemscore.DEInternal.Weighted>
1.5988

> <Gold.Chemscore.Rot.Weighted>
5.9616

> <Gold.Chemscore.Internal.Correction.Weighted>
   9.000000E+99

> <Gold.Protein.RotatedTorsions>
[ 6907 6896 6895 6894 ] final   50.01 input  -60.11 | X-H torsion
[ 7974 7965 7964 7962 ] final  -45.37 input  175.53 | X-H torsion
[ 8008 7997 7996 7995 ] final  178.13 input   59.86 | X-H torsion
[ 10167 10162 10161 10158 ] final -155.15 input  -65.29 | X-H torsion
[ 10718 10713 10712 10709 ] final   26.52 input   66.30 | X-H torsion
[ 10763 10752 10751 10750 ] final  143.88 input  -60.55 | X-H torsion
[ 11005 11000 10999 10996 ] final -116.25 input  -57.11 | X-H torsion

> <Gold.Protein.ActiveResidues>
 VAL166  LYS551  ARG553  GLY616  TRP617  ASP618  TYR619  PRO620  LYS621  CYS622 
 ASP623  PHE694  ASN695  SER759  ASP760  ASP761  ALA762  ILE779  LEU786  VAL792 
 PHE793  MET794  SER795  GLU796  ALA797  LYS798  CYS799  TRP800  GLU811  SER814 

> <Gold.Protein.RotatedAtoms>
  152.2971  134.7654  160.0365 H   0  0  0  0  0  0  0  0  0  0  0  0  # atno 6907 bound_to 6896
  151.8180  133.3385  159.3583 H   0  0  0  0  0  0  0  0  0  0  0  0  # atno 6908 bound_to 6896
  150.7256  134.5530  159.5848 H   0  0  0  0  0  0  0  0  0  0  0  0  # atno 6909 bound_to 6896
  145.9827  140.7266  142.9355 H   0  0  0  0  0  0  0  0  0  0  0  0  # atno 7974 bound_to 7965
  156.0580  140.1341  156.9974 H   0  0  0  0  0  0  0  0  0  0  0  0  # atno 8008 bound_to 7997
  154.4467  140.0997  156.6546 H   0  0  0  0  0  0  0  0  0  0  0  0  # atno 8009 bound_to 7997
  155.5421  140.3461  155.4451 H   0  0  0  0  0  0  0  0  0  0  0  0  # atno 8010 bound_to 7997
  139.6955  143.9350  152.2405 H   0  0  0  0  0  0  0  0  0  0  0  0  # atno 10167 bound_to 10162
  157.2079  130.6920  149.6216 H   0  0  0  0  0  0  0  0  0  0  0  0  # atno 10718 bound_to 10713
  153.9796  135.2942  155.3421 H   0  0  0  0  0  0  0  0  0  0  0  0  # atno 10763 bound_to 10752
  154.7276  135.5082  153.8915 H   0  0  0  0  0  0  0  0  0  0  0  0  # atno 10764 bound_to 10752
  153.0861  135.6693  154.0061 H   0  0  0  0  0  0  0  0  0  0  0  0  # atno 10765 bound_to 10752
  141.0434  133.9800  157.2957 H   0  0  0  0  0  0  0  0  0  0  0  0  # atno 11005 bound_to 11000
  144.6866  140.2936  143.7274 LP  0  0  0  0  0  0  0  0  0  0  0  0  # atno 17320 bound_to 7965
  145.7745  139.1869  143.2193 LP  0  0  0  0  0  0  0  0  0  0  0  0  # atno 17321 bound_to 7965
  139.9178  144.6818  150.8494 LP  0  0  0  0  0  0  0  0  0  0  0  0  # atno 17342 bound_to 10162
  140.7695  143.3397  151.2234 LP  0  0  0  0  0  0  0  0  0  0  0  0  # atno 17343 bound_to 10162
  155.9693  130.4561  150.5912 LP  0  0  0  0  0  0  0  0  0  0  0  0  # atno 17370 bound_to 10713
  157.3702  131.0764  151.1564 LP  0  0  0  0  0  0  0  0  0  0  0  0  # atno 17371 bound_to 10713
  139.9293  135.0200  156.8345 LP  0  0  0  0  0  0  0  0  0  0  0  0  # atno 17394 bound_to 11000
  140.6191  134.0010  155.7610 LP  0  0  0  0  0  0  0  0  0  0  0  0  # atno 17395 bound_to 11000

$$$$
