AV-unprocessed.smi:1681|AV-procd|sdf|6741|dock2
  -GOLD-   22720 7493D 1   1.00000     0.00000
 Structure written by MMmdl.
 40 41  0  0  0  0  0  0  0  0  1 V2000
  151.3383  139.6155  155.1090 C   0  0  0  0  0  0  0  0  0  0  0  0
  152.0852  139.4719  156.4372 C   0  0  0  0  0  0  0  0  0  0  0  0
  153.1161  138.7990  156.4507 O   0  0  0  0  0  0  0  0  0  0  0  0
  151.5964  140.0845  157.5425 N   0  0  0  0  0  0  0  0  0  0  0  0
  150.4226  140.9666  157.5754 C   0  0  0  0  0  0  0  0  0  0  0  0
  150.8982  142.4121  157.8055 C   0  0  0  0  0  0  0  0  0  0  0  0
  151.7409  142.5163  159.0912 C   0  0  0  0  0  0  0  0  0  0  0  0
  152.8708  141.4599  159.1231 C   0  0  1  0  0  0  0  0  0  0  0  0
  153.6169  141.4851  160.4640 C   0  0  0  0  0  0  0  0  0  0  0  0
  154.5847  140.7448  160.6396 O   0  0  0  0  0  0  0  0  0  0  0  0
  153.1442  142.3454  161.3828 N   0  0  0  0  0  0  0  0  0  0  0  0
  153.6373  142.5642  162.6930 C   0  0  0  0  0  0  0  0  0  0  0  0
  153.4128  143.6615  163.5717 C   0  0  0  0  0  0  0  0  0  0  0  0
  154.0591  143.4939  164.7158 N   0  0  0  0  0  0  0  0  0  0  0  0
  154.6981  142.3036  164.5902 N   0  0  0  0  0  0  0  0  0  0  0  0
  155.5177  141.8075  165.6815 C   0  0  0  0  0  0  0  0  0  0  0  0
  155.6153  142.8328  166.8126 C   0  0  0  0  0  0  0  0  0  0  0  0
  156.0901  144.0419  166.5012 N   0  0  0  0  0  0  0  0  0  0  0  0
  155.2645  142.5373  167.9528 O   0  0  0  0  0  0  0  0  0  0  0  0
  154.4571  141.7097  163.3666 C   0  0  0  0  0  0  0  0  0  0  0  0
  152.2898  140.0564  158.8369 C   0  0  0  0  0  0  0  0  0  0  0  0
  151.2571  140.6643  154.8211 H   0  0  0  0  0  0  0  0  0  0  0  0
  150.3381  139.1873  155.1799 H   0  0  0  0  0  0  0  0  0  0  0  0
  151.8678  139.0924  154.3120 H   0  0  0  0  0  0  0  0  0  0  0  0
  149.8109  140.9161  156.6758 H   0  0  0  0  0  0  0  0  0  0  0  0
  149.7662  140.6569  158.3900 H   0  0  0  0  0  0  0  0  0  0  0  0
  151.4914  142.7407  156.9509 H   0  0  0  0  0  0  0  0  0  0  0  0
  150.0422  143.0847  157.8651 H   0  0  0  0  0  0  0  0  0  0  0  0
  152.1579  143.5203  159.1783 H   0  0  0  0  0  0  0  0  0  0  0  0
  151.0824  142.3819  159.9509 H   0  0  0  0  0  0  0  0  0  0  0  0
  153.5808  141.6987  158.3289 H   0  0  0  0  0  0  0  0  0  0  0  0
  152.3425  142.8981  161.1152 H   0  0  0  0  0  0  0  0  0  0  0  0
  152.8220  144.5543  163.4317 H   0  0  0  0  0  0  0  0  0  0  0  0
  155.1026  140.8714  166.0590 H   0  0  0  0  0  0  0  0  0  0  0  0
  156.5130  141.5838  165.2951 H   0  0  0  0  0  0  0  0  0  0  0  0
  156.1654  144.7521  167.2154 H   0  0  0  0  0  0  0  0  0  0  0  0
  156.3657  144.2436  165.5509 H   0  0  0  0  0  0  0  0  0  0  0  0
  154.8844  140.7570  163.0901 H   0  0  0  0  0  0  0  0  0  0  0  0
  151.5793  139.7677  159.6135 H   0  0  0  0  0  0  0  0  0  0  0  0
  153.0812  139.3056  158.8698 H   0  0  0  0  0  0  0  0  0  0  0  0
  1  2  1  0  0  0  0
  1 22  1  0  0  0  0
  1 23  1  0  0  0  0
  1 24  1  0  0  0  0
  2  3  2  0  0  0  0
  2  4  1  0  0  0  0
  4 21  1  0  0  0  0
  4  5  1  0  0  0  0
  5  6  1  0  0  0  0
  5 25  1  0  0  0  0
  5 26  1  0  0  0  0
  6  7  1  0  0  0  0
  6 27  1  0  0  0  0
  6 28  1  0  0  0  0
  7  8  1  0  0  0  0
  7 29  1  0  0  0  0
  7 30  1  0  0  0  0
  8  9  1  0  0  0  0
  8 21  1  0  0  0  0
  8 31  1  0  0  0  0
  9 10  2  0  0  0  0
  9 11  1  0  0  0  0
 11 12  1  0  0  0  0
 11 32  1  0  0  0  0
 12 20  2  0  0  0  0
 12 13  1  0  0  0  0
 13 14  2  0  0  0  0
 13 33  1  0  0  0  0
 14 15  1  0  0  0  0
 15 16  1  0  0  0  0
 15 20  1  0  0  0  0
 16 17  1  0  0  0  0
 16 34  1  0  0  0  0
 16 35  1  0  0  0  0
 17 18  1  0  0  0  0
 17 19  2  0  0  0  0
 18 36  1  0  0  0  0
 18 37  1  0  0  0  0
 20 38  1  0  0  0  0
 21 39  1  0  0  0  0
 21 40  1  0  0  0  0
M  END
> <s_m_source_file>
AV-unprocessed.smi

> <i_m_source_file_index>
1681

> <i_lp_mmshare_version>
43012

> <i_f3d_flags>
0

> <s_epik_input>
W0NIM11DKD1PKU4xW0NIMl1bQ0gyXVtDSDJdW0NASF0oW0NIMl0xKUMoPU8pW05IXWMyW2NIXW5uKFtjSF0yKVtDSDJdQyg9TylbTkgyXQ==

> <s_epik_cmdline>
J2VwaWtfcHl0aG9uJywgJy1waCcsICc3LjAnLCAnLXRuJywgJzgnLCAnLW1hJywgJzIwMCcsICctbWV0YWxfYmluZGluZycsICctaW1hZScsICc8aW5maWxlLm1hZT4nLCAnLW9tYWUnLCAnPG91dGZpbGUubWFlPic=

> <r_lp_tautomer_probability>
1

> <r_epik_Ionization_Penalty>
6.05275e-06

> <r_epik_Ionization_Penalty_Charging>
0

> <r_epik_Ionization_Penalty_Neutral>
6.05275e-06

> <r_epik_State_Penalty>
-0

> <r_epik_Charging_Adjusted_Penalty>
0

> <i_epik_Tot_Q>
0

> <i_epik_Tot_abs_Q>
0

> <r_epik_Metal_State_Penalty>
-0

> <b_epik_Metal_Only>
0

> <s_lp_Force_Field>
OPLS_2005

> <r_lp_Energy>
29.0931

> <b_lp_Chiralities_Consistent>
1

> <s_lp_Variant>
AV-unprocessed.smi:1681-1

> <Gold.Version>
5.8.1

> <Gold.Id.Protein>
6NUR|6NUR_protein|mol2

> <Gold.PLP.Fitness>
41.6597

> <Gold.PLP.PLP>
-40.9379

> <Gold.PLP.part.hbond>
-2.5881

> <Gold.PLP.part.metal>
0.0000

> <Gold.PLP.part.buried>
-3.5654

> <Gold.PLP.part.nonpolar>
-33.8606

> <Gold.PLP.part.repulsive>
0.2314

> <Gold.PLP.ligand.clash>
2.0696

> <Gold.PLP.ligand.torsion>
0.1179

> <Gold.PLP.Chemscore.Hbond>
1.0000

> <Gold.PLP.Chemscore.CHOScore>
0.0000

> <Gold.PLP.Chemscore.Metal>
0.0000

> <Gold.Chemscore.Hbonds>
donor molecule, donor type, donor heavy atom, donor atom, acceptor molecule, acceptor atom, score
      P1  H  7997  8010       L1     3  1.00

> <Gold.PLP.Chemscore.Internal.Correction>
0.0271

> <Gold.Rescore>
     Score         DG    S(hbond)    S(metal)    S(lipo)     H(rot)  DE(clash)    DE(int)     intcor
     11.46     -13.58       0.98        0.00      84.22       1.96       0.74       1.38       ----

> <Gold.Chemscore.Fitness>
11.4625

> <Gold.Chemscore.DG>
-13.5824

> <Gold.Chemscore.ZeroCoef>
-5.4800

> <Gold.Chemscore.Hbond>
0.9792

> <Gold.Chemscore.Metal>
0.0000

> <Gold.Chemscore.Lipo>
84.2209

> <Gold.Chemscore.Internal_Hbond>
0.0000

> <Gold.Chemscore.DEClash>
0.7351

> <Gold.Chemscore.DEInternal>
1.3848

> <Gold.Chemscore.Rot>
1.9617

> <Gold.Chemscore.Internal.Correction>
   9.000000E+99

> <Gold.Chemscore.Hbonds>
donor molecule, donor type, donor heavy atom, donor atom, acceptor molecule, acceptor atom, score
      P1  H  7997  8010       L1     3  0.30

> <Gold.Chemscore.Hbond.Weighted>
-3.2706

> <Gold.Chemscore.Metal.Weighted>
-0.0000

> <Gold.Chemscore.Lipo.Weighted>
-9.8538

> <Gold.Chemscore.Internal_Hbond.Weighted>
0.0000

> <Gold.Chemscore.DEClash.Weighted>
0.7351

> <Gold.Chemscore.DEInternal.Weighted>
1.3848

> <Gold.Chemscore.Rot.Weighted>
5.0220

> <Gold.Chemscore.Internal.Correction.Weighted>
   9.000000E+99

> <Gold.Protein.RotatedTorsions>
[ 6907 6896 6895 6894 ] final   81.86 input  -60.11 | X-H torsion
[ 7974 7965 7964 7962 ] final  -22.23 input  175.53 | X-H torsion
[ 8008 7997 7996 7995 ] final   70.65 input   59.86 | X-H torsion
[ 10167 10162 10161 10158 ] final -104.13 input  -65.29 | X-H torsion
[ 10718 10713 10712 10709 ] final  -16.10 input   66.30 | X-H torsion
[ 10763 10752 10751 10750 ] final  169.42 input  -60.55 | X-H torsion
[ 11005 11000 10999 10996 ] final  -71.70 input  -57.11 | X-H torsion

> <Gold.Protein.ActiveResidues>
 VAL166  LYS551  ARG553  GLY616  TRP617  ASP618  TYR619  PRO620  LYS621  CYS622 
 ASP623  PHE694  ASN695  SER759  ASP760  ASP761  ALA762  ILE779  LEU786  VAL792 
 PHE793  MET794  SER795  GLU796  ALA797  LYS798  CYS799  TRP800  GLU811  SER814 

> <Gold.Protein.RotatedAtoms>
  152.5281  134.3139  159.9123 H   0  0  0  0  0  0  0  0  0  0  0  0  # atno 6907 bound_to 6896
  151.3088  133.4083  159.2653 H   0  0  0  0  0  0  0  0  0  0  0  0  # atno 6908 bound_to 6896
  151.0056  134.9373  159.8035 H   0  0  0  0  0  0  0  0  0  0  0  0  # atno 6909 bound_to 6896
  146.1687  140.4451  142.8541 H   0  0  0  0  0  0  0  0  0  0  0  0  # atno 7974 bound_to 7965
  155.7421  140.3490  155.5109 H   0  0  0  0  0  0  0  0  0  0  0  0  # atno 8008 bound_to 7997
  155.9085  140.1046  157.1319 H   0  0  0  0  0  0  0  0  0  0  0  0  # atno 8009 bound_to 7997
  154.4053  140.1272  156.4513 H   0  0  0  0  0  0  0  0  0  0  0  0  # atno 8010 bound_to 7997
  140.2126  143.3735  152.1037 H   0  0  0  0  0  0  0  0  0  0  0  0  # atno 10167 bound_to 10162
  156.5924  130.4802  149.6274 H   0  0  0  0  0  0  0  0  0  0  0  0  # atno 10718 bound_to 10713
  154.3829  135.2753  155.2200 H   0  0  0  0  0  0  0  0  0  0  0  0  # atno 10763 bound_to 10752
  154.4299  135.5980  153.6066 H   0  0  0  0  0  0  0  0  0  0  0  0  # atno 10764 bound_to 10752
  152.9834  135.5993  154.4074 H   0  0  0  0  0  0  0  0  0  0  0  0  # atno 10765 bound_to 10752
  141.1596  133.6825  156.6945 H   0  0  0  0  0  0  0  0  0  0  0  0  # atno 11005 bound_to 11000
  144.8131  140.6420  143.6402 LP  0  0  0  0  0  0  0  0  0  0  0  0  # atno 17320 bound_to 7965
  145.4397  139.1537  143.3977 LP  0  0  0  0  0  0  0  0  0  0  0  0  # atno 17321 bound_to 7965
  139.5174  144.6991  151.5545 LP  0  0  0  0  0  0  0  0  0  0  0  0  # atno 17342 bound_to 10162
  140.6312  143.9071  150.6607 LP  0  0  0  0  0  0  0  0  0  0  0  0  # atno 17343 bound_to 10162
  156.2538  130.6923  151.1669 LP  0  0  0  0  0  0  0  0  0  0  0  0  # atno 17370 bound_to 10713
  157.7300  131.0619  150.5746 LP  0  0  0  0  0  0  0  0  0  0  0  0  # atno 17371 bound_to 10713
  140.3005  134.8167  157.4094 LP  0  0  0  0  0  0  0  0  0  0  0  0  # atno 17394 bound_to 11000
  140.1266  134.5150  155.8139 LP  0  0  0  0  0  0  0  0  0  0  0  0  # atno 17395 bound_to 11000

$$$$
