AV-unprocessed.smi:1395|AV-procd|sdf|5671|dock4
  -GOLD-   22720 5293D 1   1.00000     0.00000
 Structure written by MMmdl.
 43 44  0  0  0  0  0  0  0  0  2 V2000
  151.2471  144.6060  158.1612 C   0  0  0  0  0  0  0  0  0  0  0  0
  151.6369  143.1845  158.5333 C   0  0  0  0  0  0  0  0  0  0  0  0
  152.5917  142.9749  159.5510 C   0  0  0  0  0  0  0  0  0  0  0  0
  152.9519  141.6603  159.8936 C   0  0  0  0  0  0  0  0  0  0  0  0
  152.3375  140.6041  159.1993 C   0  0  0  0  0  0  0  0  0  0  0  0
  151.4241  140.7954  158.2257 N   0  0  0  0  0  0  0  0  0  0  0  0
  151.0649  142.0580  157.8833 C   0  0  0  0  0  0  0  0  0  0  0  0
  150.1098  142.3347  156.8644 N   0  0  0  0  0  0  0  0  0  0  0  0
  149.5621  141.4840  155.9783 C   0  0  0  0  0  0  0  0  0  0  0  0
  149.7909  140.2761  155.9114 O   0  0  0  0  0  0  0  0  0  0  0  0
  148.7167  142.1203  155.1536 N   0  0  0  0  0  0  0  0  0  0  0  0
  147.9470  141.4886  154.0818 C   0  0  2  0  0  0  0  0  0  0  0  0
  147.0236  142.4947  153.3655 C   0  0  0  0  0  0  0  0  0  0  0  0
  145.8477  142.9338  154.2557 C   0  0  0  0  0  0  0  0  0  0  0  0
  145.0706  141.7613  154.7321 N   0  3  2  0  0  0  0  0  0  0  0  0
  143.8473  142.1590  155.4776 C   0  0  0  0  0  0  0  0  0  0  0  0
  142.8765  141.0085  155.7846 C   0  0  0  0  0  0  0  0  0  0  0  0
  142.3668  140.2978  154.7721 N   0  0  0  0  0  0  0  0  0  0  0  0
  142.5881  140.7594  156.9519 O   0  0  0  0  0  0  0  0  0  0  0  0
  145.9289  140.8121  155.4909 C   0  0  0  0  0  0  0  0  0  0  0  0
  147.1105  140.3213  154.6345 C   0  0  0  0  0  0  0  0  0  0  0  0
  151.7819  145.3362  158.7694 H   0  0  0  0  0  0  0  0  0  0  0  0
  150.1787  144.7617  158.3135 H   0  0  0  0  0  0  0  0  0  0  0  0
  151.4823  144.8047  157.1152 H   0  0  0  0  0  0  0  0  0  0  0  0
  153.0453  143.8095  160.0651 H   0  0  0  0  0  0  0  0  0  0  0  0
  153.6795  141.4668  160.6677 H   0  0  0  0  0  0  0  0  0  0  0  0
  152.5855  139.5788  159.4307 H   0  0  0  0  0  0  0  0  0  0  0  0
  149.8141  143.2974  156.8033 H   0  0  0  0  0  0  0  0  0  0  0  0
  148.5846  143.1121  155.2872 H   0  0  0  0  0  0  0  0  0  0  0  0
  148.6555  141.0831  153.3572 H   0  0  0  0  0  0  0  0  0  0  0  0
  147.5865  143.3673  153.0325 H   0  0  0  0  0  0  0  0  0  0  0  0
  146.6282  142.0326  152.4600 H   0  0  0  0  0  0  0  0  0  0  0  0
  146.2094  143.5069  155.1108 H   0  0  0  0  0  0  0  0  0  0  0  0
  145.1989  143.5971  153.6825 H   0  0  0  0  0  0  0  0  0  0  0  0
  144.1228  142.6688  156.4024 H   0  0  0  0  0  0  0  0  0  0  0  0
  143.2816  142.8813  154.8875 H   0  0  0  0  0  0  0  0  0  0  0  0
  141.7344  139.5305  154.9433 H   0  0  0  0  0  0  0  0  0  0  0  0
  142.6298  140.5309  153.8245 H   0  0  0  0  0  0  0  0  0  0  0  0
  146.2954  141.2967  156.3972 H   0  0  0  0  0  0  0  0  0  0  0  0
  145.3425  139.9519  155.8146 H   0  0  0  0  0  0  0  0  0  0  0  0
  146.7241  139.7326  153.8013 H   0  0  0  0  0  0  0  0  0  0  0  0
  147.7399  139.6455  155.2150 H   0  0  0  0  0  0  0  0  0  0  0  0
  144.7545  141.2812  153.9021 H   0  0  0  0  0  0  0  0  0  0  0  0
  1  2  1  0  0  0  0
  1 22  1  0  0  0  0
  1 23  1  0  0  0  0
  1 24  1  0  0  0  0
  2  7  1  0  0  0  0
  2  3  2  0  0  0  0
  3  4  1  0  0  0  0
  3 25  1  0  0  0  0
  4  5  2  0  0  0  0
  4 26  1  0  0  0  0
  5  6  1  0  0  0  0
  5 27  1  0  0  0  0
  6  7  2  0  0  0  0
  7  8  1  0  0  0  0
  8  9  1  0  0  0  0
  8 28  1  0  0  0  0
  9 10  2  0  0  0  0
  9 11  1  0  0  0  0
 11 12  1  0  0  0  0
 11 29  1  0  0  0  0
 12 21  1  0  0  0  0
 12 13  1  0  0  0  0
 12 30  1  0  0  0  0
 13 14  1  0  0  0  0
 13 31  1  0  0  0  0
 13 32  1  0  0  0  0
 14 15  1  0  0  0  0
 14 33  1  0  0  0  0
 14 34  1  0  0  0  0
 15 16  1  0  0  0  0
 15 20  1  0  0  0  0
 15 43  1  0  0  0  0
 16 17  1  0  0  0  0
 16 35  1  0  0  0  0
 16 36  1  0  0  0  0
 17 18  1  0  0  0  0
 17 19  2  0  0  0  0
 18 37  1  0  0  0  0
 18 38  1  0  0  0  0
 20 21  1  0  0  0  0
 20 39  1  0  0  0  0
 20 40  1  0  0  0  0
 21 41  1  0  0  0  0
 21 42  1  0  0  0  0
M  CHG  1  15   1
M  END
> <s_m_source_file>
AV-unprocessed.smi

> <i_m_source_file_index>
1395

> <i_lp_mmshare_version>
43012

> <i_f3d_flags>
0

> <s_epik_input>
W0NIM11jMVtjSF1bY0hdW2NIXW5jMVtOSF1DKD1PKVtOSF1bQ0hdMltDSDJdW0NIMl1OKFtDSDJdW0NIMl0yKVtDSDJdQyg9TylbTkgyXQ==

> <s_epik_cmdline>
J2VwaWtfcHl0aG9uJywgJy1waCcsICc3LjAnLCAnLXRuJywgJzgnLCAnLW1hJywgJzIwMCcsICctbWV0YWxfYmluZGluZycsICctaW1hZScsICc8aW5maWxlLm1hZT4nLCAnLW9tYWUnLCAnPG91dGZpbGUubWFlPic=

> <r_epik_Ionization_Penalty>
0.83893

> <r_epik_Ionization_Penalty_Charging>
0.838844

> <r_epik_Ionization_Penalty_Neutral>
8.62421e-05

> <r_epik_State_Penalty>
0.8734

> <r_epik_Charging_Adjusted_Penalty>
1.71224

> <i_epik_Tot_Q>
1

> <i_epik_Tot_abs_Q>
1

> <r_epik_Metal_State_Penalty>
0.890705

> <b_epik_Metal_Only>
0

> <s_lp_Force_Field>
OPLS_2005

> <r_lp_Energy>
18.2774

> <b_lp_Chiralities_Consistent>
1

> <s_lp_Variant>
AV-unprocessed.smi:1395-3

> <Gold.Version>
5.8.1

> <Gold.Id.Protein>
6NUR|6NUR_protein|mol2

> <Gold.PLP.Fitness>
50.4126

> <Gold.PLP.PLP>
-35.6944

> <Gold.PLP.part.hbond>
-4.0000

> <Gold.PLP.part.metal>
0.0000

> <Gold.PLP.part.buried>
-7.1673

> <Gold.PLP.part.nonpolar>
-25.4816

> <Gold.PLP.part.repulsive>
0.2836

> <Gold.PLP.ligand.clash>
0.0000

> <Gold.PLP.ligand.torsion>
0.0691

> <Gold.PLP.Chemscore.Hbond>
4.9440

> <Gold.PLP.Chemscore.CHOScore>
0.0000

> <Gold.PLP.Chemscore.Metal>
0.0000

> <Gold.Chemscore.Hbonds>
donor molecule, donor type, donor heavy atom, donor atom, acceptor molecule, acceptor atom, score
      L1  H     8    28       P1  8028  0.92
      L1  H    11    29       P1  8028  1.00
      L1  H    15    43       P1 10175  2.00
      L1  H    18    38       P1 10175  1.00

> <Gold.PLP.Chemscore.Internal.Correction>
0.0243

> <Gold.Rescore>
     Score         DG    S(hbond)    S(metal)    S(lipo)     H(rot)  DE(clash)    DE(int)     intcor
     19.43     -23.25       3.85        0.00      84.90       1.96       1.43       2.39       ----

> <Gold.Chemscore.Fitness>
19.4309

> <Gold.Chemscore.DG>
-23.2533

> <Gold.Chemscore.ZeroCoef>
-5.4800

> <Gold.Chemscore.Hbond>
3.8514

> <Gold.Chemscore.Metal>
0.0000

> <Gold.Chemscore.Lipo>
84.8955

> <Gold.Chemscore.Internal_Hbond>
0.0000

> <Gold.Chemscore.DEClash>
1.4278

> <Gold.Chemscore.DEInternal>
2.3946

> <Gold.Chemscore.Rot>
1.9622

> <Gold.Chemscore.Internal.Correction>
   9.000000E+99

> <Gold.Chemscore.Hbonds>
donor molecule, donor type, donor heavy atom, donor atom, acceptor molecule, acceptor atom, score
      L1  H     8    28       P1  8028  0.83
      L1  H    11    29       P1  8028  1.00
      L1  H    15    43       P1 10175  0.50
      L1  H    18    38       P1 10175  0.64

> <Gold.Chemscore.Hbond.Weighted>
-12.8637

> <Gold.Chemscore.Metal.Weighted>
-0.0000

> <Gold.Chemscore.Lipo.Weighted>
-9.9328

> <Gold.Chemscore.Internal_Hbond.Weighted>
0.0000

> <Gold.Chemscore.DEClash.Weighted>
1.4278

> <Gold.Chemscore.DEInternal.Weighted>
2.3946

> <Gold.Chemscore.Rot.Weighted>
5.0232

> <Gold.Chemscore.Internal.Correction.Weighted>
   9.000000E+99

> <Gold.Protein.RotatedTorsions>
[ 6907 6896 6895 6894 ] final  -93.99 input  -60.11 | X-H torsion
[ 7974 7965 7964 7962 ] final   10.32 input  175.53 | X-H torsion
[ 8008 7997 7996 7995 ] final   60.41 input   59.86 | X-H torsion
[ 10167 10162 10161 10158 ] final  164.90 input  -65.29 | X-H torsion
[ 10718 10713 10712 10709 ] final  -28.03 input   66.30 | X-H torsion
[ 10763 10752 10751 10750 ] final -163.40 input  -60.55 | X-H torsion
[ 11005 11000 10999 10996 ] final   36.56 input  -57.11 | X-H torsion

> <Gold.Protein.ActiveResidues>
 VAL166  LYS551  ARG553  GLY616  TRP617  ASP618  TYR619  PRO620  LYS621  CYS622 
 ASP623  PHE694  ASN695  SER759  ASP760  ASP761  ALA762  ILE779  LEU786  VAL792 
 PHE793  MET794  SER795  GLU796  ALA797  LYS798  CYS799  TRP800  GLU811  SER814 

> <Gold.Protein.RotatedAtoms>
  150.6933  134.1881  159.4274 H   0  0  0  0  0  0  0  0  0  0  0  0  # atno 6907 bound_to 6896
  151.9853  135.0005  160.0568 H   0  0  0  0  0  0  0  0  0  0  0  0  # atno 6908 bound_to 6896
  152.1718  133.4613  159.4949 H   0  0  0  0  0  0  0  0  0  0  0  0  # atno 6909 bound_to 6896
  146.2390  139.9652  142.8453 H   0  0  0  0  0  0  0  0  0  0  0  0  # atno 7974 bound_to 7965
  155.5818  140.3491  155.4542 H   0  0  0  0  0  0  0  0  0  0  0  0  # atno 8008 bound_to 7997
  156.0367  140.1287  157.0225 H   0  0  0  0  0  0  0  0  0  0  0  0  # atno 8009 bound_to 7997
  154.4375  140.1032  156.6164 H   0  0  0  0  0  0  0  0  0  0  0  0  # atno 8010 bound_to 7997
  139.4896  144.4187  151.9212 H   0  0  0  0  0  0  0  0  0  0  0  0  # atno 10167 bound_to 10162
  156.4305  130.4444  149.7121 H   0  0  0  0  0  0  0  0  0  0  0  0  # atno 10718 bound_to 10713
  154.7126  135.3009  154.9174 H   0  0  0  0  0  0  0  0  0  0  0  0  # atno 10763 bound_to 10752
  154.0070  135.6699  153.4767 H   0  0  0  0  0  0  0  0  0  0  0  0  # atno 10764 bound_to 10752
  153.0767  135.5031  154.8333 H   0  0  0  0  0  0  0  0  0  0  0  0  # atno 10765 bound_to 10752
  140.2313  134.3524  155.7963 H   0  0  0  0  0  0  0  0  0  0  0  0  # atno 11005 bound_to 11000
  145.1733  140.9731  143.4309 LP  0  0  0  0  0  0  0  0  0  0  0  0  # atno 17320 bound_to 7965
  145.0009  139.3599  143.6168 LP  0  0  0  0  0  0  0  0  0  0  0  0  # atno 17321 bound_to 7965
  140.3631  144.2948  150.5930 LP  0  0  0  0  0  0  0  0  0  0  0  0  # atno 17342 bound_to 10162
  140.5385  143.2228  151.8123 LP  0  0  0  0  0  0  0  0  0  0  0  0  # atno 17343 bound_to 10162
  156.4026  130.7682  151.2691 LP  0  0  0  0  0  0  0  0  0  0  0  0  # atno 17370 bound_to 10713
  157.7508  131.0235  150.3838 LP  0  0  0  0  0  0  0  0  0  0  0  0  # atno 17371 bound_to 10713
  141.2217  133.7247  156.8736 LP  0  0  0  0  0  0  0  0  0  0  0  0  # atno 17394 bound_to 11000
  140.1748  134.9075  157.2877 LP  0  0  0  0  0  0  0  0  0  0  0  0  # atno 17395 bound_to 11000

$$$$
