AV-unprocessed.smi:910|AV-procd|sdf|4124|dock3
  -GOLD-   22720 2 23D 1   1.00000     0.00000
 Structure written by MMmdl.
 46 47  0  0  0  0  0  0  0  0  1 V2000
  149.0132  133.2755  153.0573 C   0  0  0  0  0  0  0  0  0  0  0  0
  149.8368  133.8739  154.1765 C   0  0  0  0  0  0  0  0  0  0  0  0
  150.0709  135.2180  154.2668 N   0  0  0  0  0  0  0  0  0  0  0  0
  150.8529  135.4500  155.3960 C   0  0  0  0  0  0  0  0  0  0  0  0
  151.3415  136.5290  155.9267 N   0  0  0  0  0  0  0  0  0  0  0  0
  151.1191  137.7591  155.3244 C   0  0  0  0  0  0  0  0  0  0  0  0
  150.6354  137.9923  154.2122 O   0  0  0  0  0  0  0  0  0  0  0  0
  151.4968  138.7490  156.1468 N   0  0  0  0  0  0  0  0  0  0  0  0
  151.3889  140.1770  155.8648 C   0  0  0  0  0  0  0  0  0  0  0  0
  150.8317  140.9549  157.0656 C   0  0  0  0  0  0  0  0  0  0  0  0
  151.9157  141.5214  157.7870 O   0  0  0  0  0  0  0  0  0  0  0  0
  151.5325  142.3069  158.9084 C   0  0  2  0  0  0  0  0  0  0  0  0
  150.7217  143.5286  158.4277 C   0  0  0  0  0  0  0  0  0  0  0  0
  150.4040  144.4868  159.5849 C   0  0  0  0  0  0  0  0  0  0  0  0
  151.6870  144.9279  160.3032 C   0  0  0  0  0  0  0  0  0  0  0  0
  152.4906  143.7132  160.7921 C   0  0  0  0  0  0  0  0  0  0  0  0
  152.8217  142.7439  159.6395 C   0  0  1  0  0  0  0  0  0  0  0  0
  153.6192  141.5350  160.1576 C   0  0  0  0  0  0  0  0  0  0  0  0
  151.0736  134.2216  155.9664 O   0  0  0  0  0  0  0  0  0  0  0  0
  150.4455  133.2848  155.2023 C   0  0  0  0  0  0  0  0  0  0  0  0
  150.5326  131.8324  155.6136 C   0  0  0  0  0  0  0  0  0  0  0  0
  148.1427  132.7606  153.4640 H   0  0  0  0  0  0  0  0  0  0  0  0
  149.6078  132.5553  152.4951 H   0  0  0  0  0  0  0  0  0  0  0  0
  148.6662  134.0474  152.3697 H   0  0  0  0  0  0  0  0  0  0  0  0
  149.7179  135.8926  153.6033 H   0  0  0  0  0  0  0  0  0  0  0  0
  151.8765  138.4929  157.0468 H   0  0  0  0  0  0  0  0  0  0  0  0
  152.3795  140.5527  155.6075 H   0  0  0  0  0  0  0  0  0  0  0  0
  150.7599  140.3355  154.9875 H   0  0  0  0  0  0  0  0  0  0  0  0
  150.1606  141.7383  156.7139 H   0  0  0  0  0  0  0  0  0  0  0  0
  150.2491  140.2927  157.7075 H   0  0  0  0  0  0  0  0  0  0  0  0
  150.9298  141.7152  159.6003 H   0  0  0  0  0  0  0  0  0  0  0  0
  151.2860  144.0617  157.6613 H   0  0  0  0  0  0  0  0  0  0  0  0
  149.7910  143.2101  157.9590 H   0  0  0  0  0  0  0  0  0  0  0  0
  149.8693  145.3594  159.2088 H   0  0  0  0  0  0  0  0  0  0  0  0
  149.7364  143.9959  160.2942 H   0  0  0  0  0  0  0  0  0  0  0  0
  152.3001  145.5241  159.6261 H   0  0  0  0  0  0  0  0  0  0  0  0
  151.4384  145.5736  161.1459 H   0  0  0  0  0  0  0  0  0  0  0  0
  153.4103  144.0537  161.2689 H   0  0  0  0  0  0  0  0  0  0  0  0
  151.9213  143.1897  161.5615 H   0  0  0  0  0  0  0  0  0  0  0  0
  153.4525  143.2758  158.9254 H   0  0  0  0  0  0  0  0  0  0  0  0
  153.0405  140.9583  160.8796 H   0  0  0  0  0  0  0  0  0  0  0  0
  154.5396  141.8543  160.6470 H   0  0  0  0  0  0  0  0  0  0  0  0
  153.8989  140.8633  159.3454 H   0  0  0  0  0  0  0  0  0  0  0  0
  150.6594  131.1953  154.7382 H   0  0  0  0  0  0  0  0  0  0  0  0
  149.6222  131.5324  156.1326 H   0  0  0  0  0  0  0  0  0  0  0  0
  151.3805  131.6742  156.2805 H   0  0  0  0  0  0  0  0  0  0  0  0
  1 22  1  0  0  0  0
  1 23  1  0  0  0  0
  1 24  1  0  0  0  0
  1  2  1  0  0  0  0
  2  3  1  0  0  0  0
  2 20  2  0  0  0  0
  3 25  1  0  0  0  0
  3  4  1  0  0  0  0
  4 19  1  0  0  0  0
  4  5  2  0  0  0  0
  5  6  1  0  0  0  0
  6  8  1  0  0  0  0
  6  7  2  0  0  0  0
  8  9  1  0  0  0  0
  8 26  1  0  0  0  0
  9 10  1  0  0  0  0
  9 27  1  0  0  0  0
  9 28  1  0  0  0  0
 10 11  1  0  0  0  0
 10 29  1  0  0  0  0
 10 30  1  0  0  0  0
 11 12  1  0  0  0  0
 12 17  1  0  0  0  0
 12 13  1  0  0  0  0
 12 31  1  0  0  0  0
 13 14  1  0  0  0  0
 13 32  1  0  0  0  0
 13 33  1  0  0  0  0
 14 15  1  0  0  0  0
 14 34  1  0  0  0  0
 14 35  1  0  0  0  0
 15 16  1  0  0  0  0
 15 36  1  0  0  0  0
 15 37  1  0  0  0  0
 16 17  1  0  0  0  0
 16 38  1  0  0  0  0
 16 39  1  0  0  0  0
 17 18  1  0  0  0  0
 17 40  1  0  0  0  0
 18 41  1  0  0  0  0
 18 42  1  0  0  0  0
 18 43  1  0  0  0  0
 19 20  1  0  0  0  0
 20 21  1  0  0  0  0
 21 44  1  0  0  0  0
 21 45  1  0  0  0  0
 21 46  1  0  0  0  0
M  END
> <s_m_source_file>
AV-unprocessed.smi

> <i_m_source_file_index>
910

> <i_lp_mmshare_version>
43012

> <i_f3d_flags>
0

> <s_epik_input>
W0NIM11jMW5jKG9jMVtDSDNdKVtOSF1DKD1PKVtOSF1bQ0gyXVtDSDJdT1tDQEBIXTJbQ0gyXVtDSDJdW0NIMl1bQ0gyXVtDQEhdMltDSDNd

> <s_epik_cmdline>
J2VwaWtfcHl0aG9uJywgJy1waCcsICc3LjAnLCAnLXRuJywgJzgnLCAnLW1hJywgJzIwMCcsICctbWV0YWxfYmluZGluZycsICctaW1hZScsICc8aW5maWxlLm1hZT4nLCAnLW9tYWUnLCAnPG91dGZpbGUubWFlPic=

> <r_lp_tautomer_probability>
0.107061

> <r_epik_Ionization_Penalty>
0.727192

> <r_epik_Ionization_Penalty_Charging>
0.726719

> <r_epik_Ionization_Penalty_Neutral>
0.000473387

> <r_epik_State_Penalty>
2.53712

> <r_epik_Charging_Adjusted_Penalty>
3.26383

> <i_epik_Tot_Q>
0

> <i_epik_Tot_abs_Q>
0

> <r_epik_Metal_State_Penalty>
3.71015

> <b_epik_Metal_Only>
0

> <s_lp_Force_Field>
OPLS_2005

> <r_lp_Energy>
31.238

> <b_lp_Chiralities_Consistent>
1

> <s_lp_Variant>
AV-unprocessed.smi:910-9

> <Gold.Version>
5.8.1

> <Gold.Id.Protein>
6NUR|6NUR_protein|mol2

> <Gold.PLP.Fitness>
44.2354

> <Gold.PLP.PLP>
-42.0979

> <Gold.PLP.part.hbond>
-1.2910

> <Gold.PLP.part.metal>
0.0000

> <Gold.PLP.part.buried>
-5.0381

> <Gold.PLP.part.nonpolar>
-35.3632

> <Gold.PLP.part.repulsive>
0.4052

> <Gold.PLP.ligand.clash>
0.0000

> <Gold.PLP.ligand.torsion>
0.3890

> <Gold.PLP.Chemscore.Hbond>
0.9600

> <Gold.PLP.Chemscore.CHOScore>
0.0000

> <Gold.PLP.Chemscore.Metal>
0.0000

> <Gold.Chemscore.Hbonds>
donor molecule, donor type, donor heavy atom, donor atom, acceptor molecule, acceptor atom, score
      L1  H     3    25       P1  7948  0.80

> <Gold.PLP.Chemscore.Internal.Correction>
0.0356

> <Gold.Rescore>
     Score         DG    S(hbond)    S(metal)    S(lipo)     H(rot)  DE(clash)    DE(int)     intcor
     14.82     -16.56       0.84        0.00     107.08       1.66       0.02       1.73       ----

> <Gold.Chemscore.Fitness>
14.8178

> <Gold.Chemscore.DG>
-16.5616

> <Gold.Chemscore.ZeroCoef>
-5.4800

> <Gold.Chemscore.Hbond>
0.8374

> <Gold.Chemscore.Metal>
0.0000

> <Gold.Chemscore.Lipo>
107.0786

> <Gold.Chemscore.Internal_Hbond>
0.0000

> <Gold.Chemscore.DEClash>
0.0168

> <Gold.Chemscore.DEInternal>
1.7271

> <Gold.Chemscore.Rot>
1.6576

> <Gold.Chemscore.Internal.Correction>
   9.000000E+99

> <Gold.Chemscore.Hbonds>
donor molecule, donor type, donor heavy atom, donor atom, acceptor molecule, acceptor atom, score
      L1  H     3    25       P1  7948  0.13

> <Gold.Chemscore.Hbond.Weighted>
-2.7970

> <Gold.Chemscore.Metal.Weighted>
-0.0000

> <Gold.Chemscore.Lipo.Weighted>
-12.5282

> <Gold.Chemscore.Internal_Hbond.Weighted>
0.0000

> <Gold.Chemscore.DEClash.Weighted>
0.0168

> <Gold.Chemscore.DEInternal.Weighted>
1.7271

> <Gold.Chemscore.Rot.Weighted>
4.2436

> <Gold.Chemscore.Internal.Correction.Weighted>
   9.000000E+99

> <Gold.Protein.RotatedTorsions>
[ 6907 6896 6895 6894 ] final   38.16 input  -60.11 | X-H torsion
[ 7974 7965 7964 7962 ] final   99.47 input  175.53 | X-H torsion
[ 8008 7997 7996 7995 ] final  130.07 input   59.86 | X-H torsion
[ 10167 10162 10161 10158 ] final -153.96 input  -65.29 | X-H torsion
[ 10718 10713 10712 10709 ] final   -6.81 input   66.30 | X-H torsion
[ 10763 10752 10751 10750 ] final  144.69 input  -60.55 | X-H torsion
[ 11005 11000 10999 10996 ] final  -40.34 input  -57.11 | X-H torsion

> <Gold.Protein.ActiveResidues>
 VAL166  LYS551  ARG553  GLY616  TRP617  ASP618  TYR619  PRO620  LYS621  CYS622 
 ASP623  PHE694  ASN695  SER759  ASP760  ASP761  ALA762  ILE779  LEU786  VAL792 
 PHE793  MET794  SER795  GLU796  ALA797  LYS798  CYS799  TRP800  GLU811  SER814 

> <Gold.Protein.RotatedAtoms>
  152.1528  134.8974  160.0546 H   0  0  0  0  0  0  0  0  0  0  0  0  # atno 6907 bound_to 6896
  152.0000  133.3817  159.4186 H   0  0  0  0  0  0  0  0  0  0  0  0  # atno 6908 bound_to 6896
  150.6878  134.3767  159.5059 H   0  0  0  0  0  0  0  0  0  0  0  0  # atno 6909 bound_to 6896
  145.3985  139.2351  143.3313 H   0  0  0  0  0  0  0  0  0  0  0  0  # atno 7974 bound_to 7965
  156.2948  140.2605  156.2701 H   0  0  0  0  0  0  0  0  0  0  0  0  # atno 8008 bound_to 7997
  154.9703  140.0391  157.2250 H   0  0  0  0  0  0  0  0  0  0  0  0  # atno 8009 bound_to 7997
  154.7864  140.2804  155.6029 H   0  0  0  0  0  0  0  0  0  0  0  0  # atno 8010 bound_to 7997
  139.7053  143.9196  152.2446 H   0  0  0  0  0  0  0  0  0  0  0  0  # atno 10167 bound_to 10162
  156.7264  130.5166  149.5856 H   0  0  0  0  0  0  0  0  0  0  0  0  # atno 10718 bound_to 10713
  153.9930  135.2930  155.3410 H   0  0  0  0  0  0  0  0  0  0  0  0  # atno 10763 bound_to 10752
  154.7203  135.5112  153.8805 H   0  0  0  0  0  0  0  0  0  0  0  0  # atno 10764 bound_to 10752
  153.0801  135.6676  154.0180 H   0  0  0  0  0  0  0  0  0  0  0  0  # atno 10765 bound_to 10752
  141.0167  133.6882  156.2308 H   0  0  0  0  0  0  0  0  0  0  0  0  # atno 11005 bound_to 11000
  146.2763  140.4678  142.8794 LP  0  0  0  0  0  0  0  0  0  0  0  0  # atno 17320 bound_to 7965
  144.8391  140.6828  143.6241 LP  0  0  0  0  0  0  0  0  0  0  0  0  # atno 17321 bound_to 7965
  139.9050  144.6890  150.8624 LP  0  0  0  0  0  0  0  0  0  0  0  0  # atno 17342 bound_to 10162
  140.7720  143.3485  151.2061 LP  0  0  0  0  0  0  0  0  0  0  0  0  # atno 17343 bound_to 10162
  156.1559  130.6341  151.0656 LP  0  0  0  0  0  0  0  0  0  0  0  0  # atno 17370 bound_to 10713
  157.6877  131.0820  150.7197 LP  0  0  0  0  0  0  0  0  0  0  0  0  # atno 17371 bound_to 10713
  140.6642  134.4936  157.5585 LP  0  0  0  0  0  0  0  0  0  0  0  0  # atno 17394 bound_to 11000
  139.9121  134.8322  156.1491 LP  0  0  0  0  0  0  0  0  0  0  0  0  # atno 17395 bound_to 11000

$$$$
