AV-unprocessed.smi:2138|AV-procd|sdf|8711|dock7
  -GOLD-   2272011473D 1   1.00000     0.00000
 Structure written by MMmdl.
 46 47  0  0  0  0  0  0  0  0  1 V2000
  152.6833  143.7350  158.8565 C   0  0  0  0  0  0  0  0  0  0  0  0
  151.5073  143.1030  158.3825 O   0  0  0  0  0  0  0  0  0  0  0  0
  151.4770  141.7180  158.6835 C   0  0  0  0  0  0  0  0  0  0  0  0
  150.6893  140.9866  157.5933 C   0  0  0  0  0  0  0  0  0  0  0  0
  151.6109  140.3691  156.6998 O   0  0  0  0  0  0  0  0  0  0  0  0
  151.3123  139.1146  156.2082 C   0  0  0  0  0  0  0  0  0  0  0  0
  150.3194  138.3549  156.8575 C   0  0  0  0  0  0  0  0  0  0  0  0
  150.0040  137.0757  156.3599 C   0  0  0  0  0  0  0  0  0  0  0  0
  150.7009  136.5908  155.2264 C   0  0  0  0  0  0  0  0  0  0  0  0
  150.4748  135.3297  154.6087 N   0  0  0  0  0  0  0  0  0  0  0  0
  149.5096  134.4212  154.8436 C   0  0  0  0  0  0  0  0  0  0  0  0
  148.6300  134.5335  155.6971 O   0  0  0  0  0  0  0  0  0  0  0  0
  149.5571  133.1600  153.9654 C   0  0  1  0  0  0  0  0  0  0  0  0
  149.4537  131.8745  154.8077 C   0  0  0  0  0  0  0  0  0  0  0  0
  148.1070  131.2857  154.4215 C   0  0  0  0  0  0  0  0  0  0  0  0
  147.6433  130.2872  154.9702 O   0  0  0  0  0  0  0  0  0  0  0  0
  147.5296  131.9964  153.4416 N   0  0  0  0  0  0  0  0  0  0  0  0
  146.2305  131.7609  152.7989 C   0  0  0  0  0  0  0  0  0  0  0  0
  146.1534  130.3555  152.1771 C   0  0  0  0  0  0  0  0  0  0  0  0
  145.8965  132.8643  151.7800 C   0  0  0  0  0  0  0  0  0  0  0  0
  148.3726  133.0880  152.9786 C   0  0  0  0  0  0  0  0  0  0  0  0
  151.6731  137.4332  154.6480 C   0  0  0  0  0  0  0  0  0  0  0  0
  151.9791  138.6602  155.1189 N   0  0  0  0  0  0  0  0  0  0  0  0
  152.6566  144.7951  158.6037 H   0  0  0  0  0  0  0  0  0  0  0  0
  153.5748  143.3026  158.4007 H   0  0  0  0  0  0  0  0  0  0  0  0
  152.7678  143.6497  159.9408 H   0  0  0  0  0  0  0  0  0  0  0  0
  152.4924  141.3228  158.7393 H   0  0  0  0  0  0  0  0  0  0  0  0
  151.0057  141.5576  159.6545 H   0  0  0  0  0  0  0  0  0  0  0  0
  150.0442  140.2342  158.0500 H   0  0  0  0  0  0  0  0  0  0  0  0
  150.0561  141.6968  157.0586 H   0  0  0  0  0  0  0  0  0  0  0  0
  149.8031  138.7492  157.7204 H   0  0  0  0  0  0  0  0  0  0  0  0
  149.2310  136.5087  156.8530 H   0  0  0  0  0  0  0  0  0  0  0  0
  151.1564  135.0685  153.9109 H   0  0  0  0  0  0  0  0  0  0  0  0
  150.4931  133.1519  153.4040 H   0  0  0  0  0  0  0  0  0  0  0  0
  150.2451  131.1706  154.5486 H   0  0  0  0  0  0  0  0  0  0  0  0
  149.4983  132.0487  155.8841 H   0  0  0  0  0  0  0  0  0  0  0  0
  145.4687  131.8061  153.5786 H   0  0  0  0  0  0  0  0  0  0  0  0
  145.1524  130.1551  151.7946 H   0  0  0  0  0  0  0  0  0  0  0  0
  146.3834  129.5868  152.9159 H   0  0  0  0  0  0  0  0  0  0  0  0
  146.8494  130.2385  151.3462 H   0  0  0  0  0  0  0  0  0  0  0  0
  144.8875  132.7378  151.3867 H   0  0  0  0  0  0  0  0  0  0  0  0
  146.5806  132.8548  150.9313 H   0  0  0  0  0  0  0  0  0  0  0  0
  145.9475  133.8516  152.2402 H   0  0  0  0  0  0  0  0  0  0  0  0
  147.8024  134.0177  152.9305 H   0  0  0  0  0  0  0  0  0  0  0  0
  148.7238  132.8669  151.9699 H   0  0  0  0  0  0  0  0  0  0  0  0
  152.2264  137.1137  153.7769 H   0  0  0  0  0  0  0  0  0  0  0  0
  1  2  1  0  0  0  0
  1 24  1  0  0  0  0
  1 25  1  0  0  0  0
  1 26  1  0  0  0  0
  2  3  1  0  0  0  0
  3  4  1  0  0  0  0
  3 27  1  0  0  0  0
  3 28  1  0  0  0  0
  4  5  1  0  0  0  0
  4 29  1  0  0  0  0
  4 30  1  0  0  0  0
  5  6  1  0  0  0  0
  6 23  1  0  0  0  0
  6  7  2  0  0  0  0
  7  8  1  0  0  0  0
  7 31  1  0  0  0  0
  8  9  2  0  0  0  0
  8 32  1  0  0  0  0
  9 10  1  0  0  0  0
  9 22  1  0  0  0  0
 10 11  1  0  0  0  0
 10 33  1  0  0  0  0
 11 12  2  0  0  0  0
 11 13  1  0  0  0  0
 13 21  1  0  0  0  0
 13 14  1  0  0  0  0
 13 34  1  0  0  0  0
 14 15  1  0  0  0  0
 14 35  1  0  0  0  0
 14 36  1  0  0  0  0
 15 16  2  0  0  0  0
 15 17  1  0  0  0  0
 17 18  1  0  0  0  0
 17 21  1  0  0  0  0
 18 19  1  0  0  0  0
 18 20  1  0  0  0  0
 18 37  1  0  0  0  0
 19 38  1  0  0  0  0
 19 39  1  0  0  0  0
 19 40  1  0  0  0  0
 20 41  1  0  0  0  0
 20 42  1  0  0  0  0
 20 43  1  0  0  0  0
 21 44  1  0  0  0  0
 21 45  1  0  0  0  0
 22 23  2  0  0  0  0
 22 46  1  0  0  0  0
M  END
> <s_m_source_file>
AV-unprocessed.smi

> <i_m_source_file_index>
2138

> <i_lp_mmshare_version>
43012

> <i_f3d_flags>
0

> <s_epik_input>
W0NIM11PW0NIMl1bQ0gyXU9jMVtjSF1bY0hdYyhbY0hdbjEpW05IXUMoPU8pW0NAQEhdMltDSDJdQyg9TylOKFtDSDJdMilbQ0hdKFtDSDNdKVtDSDNd

> <s_epik_cmdline>
J2VwaWtfcHl0aG9uJywgJy1waCcsICc3LjAnLCAnLXRuJywgJzgnLCAnLW1hJywgJzIwMCcsICctbWV0YWxfYmluZGluZycsICctaW1hZScsICc8aW5maWxlLm1hZT4nLCAnLW9tYWUnLCAnPG91dGZpbGUubWFlPic=

> <r_lp_tautomer_probability>
1

> <r_epik_Ionization_Penalty>
1.72652e-05

> <r_epik_Ionization_Penalty_Charging>
0

> <r_epik_Ionization_Penalty_Neutral>
1.72652e-05

> <r_epik_State_Penalty>
-0

> <r_epik_Charging_Adjusted_Penalty>
0

> <i_epik_Tot_Q>
0

> <i_epik_Tot_abs_Q>
0

> <r_epik_Metal_State_Penalty>
-0

> <b_epik_Metal_Only>
0

> <s_lp_Force_Field>
OPLS_2005

> <r_lp_Energy>
21.5992

> <b_lp_Chiralities_Consistent>
1

> <s_lp_Variant>
AV-unprocessed.smi:2138-2

> <Gold.Version>
5.8.1

> <Gold.Id.Protein>
6NUR|6NUR_protein|mol2

> <Gold.PLP.Fitness>
43.8955

> <Gold.PLP.PLP>
-37.9815

> <Gold.PLP.part.hbond>
-3.0000

> <Gold.PLP.part.metal>
0.0000

> <Gold.PLP.part.buried>
-3.9055

> <Gold.PLP.part.nonpolar>
-30.2510

> <Gold.PLP.part.repulsive>
0.3902

> <Gold.PLP.ligand.clash>
0.0000

> <Gold.PLP.ligand.torsion>
1.2013

> <Gold.PLP.Chemscore.Hbond>
1.7480

> <Gold.PLP.Chemscore.CHOScore>
0.9933

> <Gold.PLP.Chemscore.Metal>
0.0000

> <Gold.Chemscore.Hbonds>
donor molecule, donor type, donor heavy atom, donor atom, acceptor molecule, acceptor atom, score
      L1  C    22    46       P1  7949  0.41

> <Gold.PLP.Chemscore.Internal.Correction>
0.0926

> <Gold.Rescore>
     Score         DG    S(hbond)    S(metal)    S(lipo)     H(rot)  DE(clash)    DE(int)     intcor
     10.15     -13.02       1.02        0.00      79.33       2.00       0.01       2.86       ----

> <Gold.Chemscore.Fitness>
10.1532

> <Gold.Chemscore.DG>
-13.0248

> <Gold.Chemscore.ZeroCoef>
-5.4800

> <Gold.Chemscore.Hbond>
1.0155

> <Gold.Chemscore.Metal>
0.0000

> <Gold.Chemscore.Lipo>
79.3347

> <Gold.Chemscore.Internal_Hbond>
0.0000

> <Gold.Chemscore.DEClash>
0.0144

> <Gold.Chemscore.DEInternal>
2.8572

> <Gold.Chemscore.Rot>
2.0035

> <Gold.Chemscore.Internal.Correction>
   9.000000E+99

> <Gold.Chemscore.Hbond.Weighted>
-3.3916

> <Gold.Chemscore.Metal.Weighted>
-0.0000

> <Gold.Chemscore.Lipo.Weighted>
-9.2822

> <Gold.Chemscore.Internal_Hbond.Weighted>
0.0000

> <Gold.Chemscore.DEClash.Weighted>
0.0144

> <Gold.Chemscore.DEInternal.Weighted>
2.8572

> <Gold.Chemscore.Rot.Weighted>
5.1290

> <Gold.Chemscore.Internal.Correction.Weighted>
   9.000000E+99

> <Gold.Protein.RotatedTorsions>
[ 6907 6896 6895 6894 ] final   -4.05 input  -60.11 | X-H torsion
[ 7974 7965 7964 7962 ] final   81.67 input  175.53 | X-H torsion
[ 8008 7997 7996 7995 ] final  -33.36 input   59.86 | X-H torsion
[ 10167 10162 10161 10158 ] final  -46.69 input  -65.29 | X-H torsion
[ 10718 10713 10712 10709 ] final  -66.37 input   66.30 | X-H torsion
[ 10763 10752 10751 10750 ] final   93.94 input  -60.55 | X-H torsion
[ 11005 11000 10999 10996 ] final   20.40 input  -57.11 | X-H torsion

> <Gold.Protein.ActiveResidues>
 VAL166  LYS551  ARG553  GLY616  TRP617  ASP618  TYR619  PRO620  LYS621  CYS622 
 ASP623  PHE694  ASN695  SER759  ASP760  ASP761  ALA762  ILE779  LEU786  VAL792 
 PHE793  MET794  SER795  GLU796  ALA797  LYS798  CYS799  TRP800  GLU811  SER814 

> <Gold.Protein.RotatedAtoms>
  151.5039  135.1063  159.9835 H   0  0  0  0  0  0  0  0  0  0  0  0  # atno 6907 bound_to 6896
  152.4690  133.7983  159.6950 H   0  0  0  0  0  0  0  0  0  0  0  0  # atno 6908 bound_to 6896
  150.8689  133.7471  159.2993 H   0  0  0  0  0  0  0  0  0  0  0  0  # atno 6909 bound_to 6896
  145.6351  139.2413  143.2062 H   0  0  0  0  0  0  0  0  0  0  0  0  # atno 7974 bound_to 7965
  154.4151  140.1713  156.1875 H   0  0  0  0  0  0  0  0  0  0  0  0  # atno 8008 bound_to 7997
  155.9631  140.3392  155.6484 H   0  0  0  0  0  0  0  0  0  0  0  0  # atno 8009 bound_to 7997
  155.6723  140.0713  157.2506 H   0  0  0  0  0  0  0  0  0  0  0  0  # atno 8010 bound_to 7997
  140.6807  143.2819  151.3819 H   0  0  0  0  0  0  0  0  0  0  0  0  # atno 10167 bound_to 10162
  156.0616  130.4261  150.1699 H   0  0  0  0  0  0  0  0  0  0  0  0  # atno 10718 bound_to 10713
  153.2360  135.4307  155.0647 H   0  0  0  0  0  0  0  0  0  0  0  0  # atno 10763 bound_to 10752
  154.8319  135.3391  154.6718 H   0  0  0  0  0  0  0  0  0  0  0  0  # atno 10764 bound_to 10752
  153.7143  135.7021  153.5085 H   0  0  0  0  0  0  0  0  0  0  0  0  # atno 10765 bound_to 10752
  140.4030  134.1698  155.7664 H   0  0  0  0  0  0  0  0  0  0  0  0  # atno 11005 bound_to 11000
  146.1325  140.7166  142.9405 LP  0  0  0  0  0  0  0  0  0  0  0  0  # atno 17320 bound_to 7965
  144.7178  140.4272  143.7031 LP  0  0  0  0  0  0  0  0  0  0  0  0  # atno 17321 bound_to 7965
  139.6127  144.1065  152.2315 LP  0  0  0  0  0  0  0  0  0  0  0  0  # atno 17342 bound_to 10162
  140.0484  144.5952  150.7355 LP  0  0  0  0  0  0  0  0  0  0  0  0  # atno 17343 bound_to 10162
  156.9766  130.9851  151.3447 LP  0  0  0  0  0  0  0  0  0  0  0  0  # atno 17370 bound_to 10713
  157.5629  130.8258  149.8289 LP  0  0  0  0  0  0  0  0  0  0  0  0  # atno 17371 bound_to 10713
  141.1849  133.8333  157.1122 LP  0  0  0  0  0  0  0  0  0  0  0  0  # atno 17394 bound_to 11000
  140.0322  134.9895  157.0803 LP  0  0  0  0  0  0  0  0  0  0  0  0  # atno 17395 bound_to 11000

$$$$
