AV-unprocessed.smi:3112|AV-procd|sdf|11838|dock6
  -GOLD-   2272017213D 1   1.00000     0.00000
 Structure written by MMmdl.
 37 37  0  0  0  0  0  0  0  0  2 V2000
  145.5676  136.2254  151.3495 C   0  0  0  0  0  0  0  0  0  0  0  0
  145.8886  137.0793  152.5839 C   0  0  0  0  0  0  0  0  0  0  0  0
  146.4541  138.4686  152.2373 C   0  0  2  0  0  0  0  0  0  0  0  0
  147.3609  138.3376  151.1600 O   0  0  0  0  0  0  0  0  0  0  0  0
  147.2016  139.0988  153.4246 C   0  0  0  0  0  0  0  0  0  0  0  0
  148.6517  138.8237  153.3448 N   0  3  0  0  0  0  0  0  0  0  0  0
  149.4105  138.9853  154.6078 C   0  0  1  0  0  0  0  0  0  0  0  0
  150.9209  138.7882  154.3726 C   0  0  0  0  0  0  0  0  0  0  0  0
  149.0990  140.3527  155.2720 C   0  0  2  0  0  0  0  0  0  0  0  0
  148.8762  141.4833  154.2495 C   0  0  0  0  0  0  0  0  0  0  0  0
  150.0724  140.7295  156.2929 N   0  0  0  0  0  0  0  0  0  0  0  0
  150.6874  141.9524  156.4715 C   0  0  0  0  0  0  0  0  0  0  0  0
  151.5039  141.8463  157.5607 C   0  0  0  0  0  0  0  0  0  0  0  0
  151.3184  140.5042  157.9925 C   0  0  0  0  0  0  0  0  0  0  0  0
  150.4601  139.8402  157.2358 N   0  0  0  0  0  0  0  0  0  0  0  0
  145.1355  135.2686  151.6433 H   0  0  0  0  0  0  0  0  0  0  0  0
  146.4630  136.0157  150.7641 H   0  0  0  0  0  0  0  0  0  0  0  0
  144.8506  136.7268  150.6988 H   0  0  0  0  0  0  0  0  0  0  0  0
  144.9717  137.2005  153.1618 H   0  0  0  0  0  0  0  0  0  0  0  0
  146.5846  136.5424  153.2302 H   0  0  0  0  0  0  0  0  0  0  0  0
  145.6369  139.1238  151.9314 H   0  0  0  0  0  0  0  0  0  0  0  0
  148.0585  138.9654  151.2751 H   0  0  0  0  0  0  0  0  0  0  0  0
  147.0569  140.1798  153.4179 H   0  0  0  0  0  0  0  0  0  0  0  0
  146.7917  138.7267  154.3636 H   0  0  0  0  0  0  0  0  0  0  0  0
  148.7900  137.8840  153.0004 H   0  0  0  0  0  0  0  0  0  0  0  0
  149.0726  138.2101  155.2973 H   0  0  0  0  0  0  0  0  0  0  0  0
  151.4841  138.9685  155.2887 H   0  0  0  0  0  0  0  0  0  0  0  0
  151.3026  139.4687  153.6106 H   0  0  0  0  0  0  0  0  0  0  0  0
  151.1518  137.7725  154.0530 H   0  0  0  0  0  0  0  0  0  0  0  0
  148.1482  140.2336  155.7943 H   0  0  0  0  0  0  0  0  0  0  0  0
  148.0847  141.2234  153.5462 H   0  0  0  0  0  0  0  0  0  0  0  0
  149.7755  141.6964  153.6711 H   0  0  0  0  0  0  0  0  0  0  0  0
  148.5801  142.4066  154.7484 H   0  0  0  0  0  0  0  0  0  0  0  0
  150.4949  142.7893  155.8162 H   0  0  0  0  0  0  0  0  0  0  0  0
  152.1368  142.6115  157.9852 H   0  0  0  0  0  0  0  0  0  0  0  0
  151.7771  139.9968  158.8284 H   0  0  0  0  0  0  0  0  0  0  0  0
  149.0429  139.4651  152.6701 H   0  0  0  0  0  0  0  0  0  0  0  0
  1  2  1  0  0  0  0
  1 16  1  0  0  0  0
  1 17  1  0  0  0  0
  1 18  1  0  0  0  0
  2  3  1  0  0  0  0
  2 19  1  0  0  0  0
  2 20  1  0  0  0  0
  3  4  1  0  0  0  0
  3  5  1  0  0  0  0
  3 21  1  0  0  0  0
  4 22  1  0  0  0  0
  5  6  1  0  0  0  0
  5 23  1  0  0  0  0
  5 24  1  0  0  0  0
  6  7  1  0  0  0  0
  6 25  1  0  0  0  0
  6 37  1  0  0  0  0
  7  8  1  0  0  0  0
  7  9  1  0  0  0  0
  7 26  1  0  0  0  0
  8 27  1  0  0  0  0
  8 28  1  0  0  0  0
  8 29  1  0  0  0  0
  9 10  1  0  0  0  0
  9 11  1  0  0  0  0
  9 30  1  0  0  0  0
 10 31  1  0  0  0  0
 10 32  1  0  0  0  0
 10 33  1  0  0  0  0
 11 15  1  0  0  0  0
 11 12  1  0  0  0  0
 12 13  2  0  0  0  0
 12 34  1  0  0  0  0
 13 14  1  0  0  0  0
 13 35  1  0  0  0  0
 14 15  2  0  0  0  0
 14 36  1  0  0  0  0
M  CHG  1   6   1
M  END
> <s_m_source_file>
AV-unprocessed.smi

> <i_m_source_file_index>
3112

> <i_lp_mmshare_version>
43012

> <i_f3d_flags>
0

> <s_epik_input>
W0NIM11bQ0gyXVtDQEhdKFtPSF0pW0NIMl1bTkhdW0NASF0oW0NIM10pW0NASF0oW0NIM10pbjFbY0hdW2NIXVtjSF1uMQ==

> <s_epik_cmdline>
J2VwaWtfcHl0aG9uJywgJy1waCcsICc3LjAnLCAnLXRuJywgJzgnLCAnLW1hJywgJzIwMCcsICctbWV0YWxfYmluZGluZycsICctaW1hZScsICc8aW5maWxlLm1hZT4nLCAnLW9tYWUnLCAnPG91dGZpbGUubWFlPic=

> <r_lp_tautomer_probability>
1

> <r_epik_Ionization_Penalty>
0.0154842

> <r_epik_Ionization_Penalty_Charging>
0.0154724

> <r_epik_Ionization_Penalty_Neutral>
1.17979e-05

> <r_epik_State_Penalty>
0.0121607

> <r_epik_Charging_Adjusted_Penalty>
0.0276331

> <i_epik_Tot_Q>
1

> <i_epik_Tot_abs_Q>
1

> <r_epik_Metal_State_Penalty>
0.0121863

> <b_epik_Metal_Only>
0

> <s_lp_Force_Field>
OPLS_2005

> <r_lp_Energy>
12.0711

> <b_lp_Chiralities_Consistent>
1

> <s_lp_Variant>
AV-unprocessed.smi:3112-3

> <Gold.Version>
5.8.1

> <Gold.Id.Protein>
6NUR|6NUR_protein|mol2

> <Gold.PLP.Fitness>
45.9674

> <Gold.PLP.PLP>
-32.3708

> <Gold.PLP.part.hbond>
-4.8692

> <Gold.PLP.part.metal>
0.0000

> <Gold.PLP.part.buried>
-1.2198

> <Gold.PLP.part.nonpolar>
-25.5232

> <Gold.PLP.part.repulsive>
0.0695

> <Gold.PLP.ligand.clash>
0.0000

> <Gold.PLP.ligand.torsion>
1.4161

> <Gold.PLP.Chemscore.Hbond>
4.4000

> <Gold.PLP.Chemscore.CHOScore>
1.0000

> <Gold.PLP.Chemscore.Metal>
0.0000

> <Gold.Chemscore.Hbonds>
donor molecule, donor type, donor heavy atom, donor atom, acceptor molecule, acceptor atom, score
      L1  H     4    22       P1  7957  1.00
      L1  H     6    25       P1  7948  2.00
      L1  H     6    37       P1  7957  1.00
      P1  H  7954  7966       L1     4  0.25
      L1  C    12    34       P1  8028  1.00

> <Gold.PLP.Chemscore.Internal.Correction>
0.2289

> <Gold.Rescore>
     Score         DG    S(hbond)    S(metal)    S(lipo)     H(rot)  DE(clash)    DE(int)     intcor
     16.73     -17.85       2.93        0.00      74.86       2.41       0.13       1.00       ----

> <Gold.Chemscore.Fitness>
16.7275

> <Gold.Chemscore.DG>
-17.8544

> <Gold.Chemscore.ZeroCoef>
-5.4800

> <Gold.Chemscore.Hbond>
2.9289

> <Gold.Chemscore.Metal>
0.0000

> <Gold.Chemscore.Lipo>
74.8610

> <Gold.Chemscore.Internal_Hbond>
0.0000

> <Gold.Chemscore.DEClash>
0.1294

> <Gold.Chemscore.DEInternal>
0.9975

> <Gold.Chemscore.Rot>
2.4089

> <Gold.Chemscore.Internal.Correction>
   9.000000E+99

> <Gold.Chemscore.Hbonds>
donor molecule, donor type, donor heavy atom, donor atom, acceptor molecule, acceptor atom, score
      L1  H     4    22       P1  7957  0.50
      L1  H     6    25       P1  7948  0.97
      L1  H     6    37       P1  7957  0.99

> <Gold.Chemscore.Hbond.Weighted>
-9.7824

> <Gold.Chemscore.Metal.Weighted>
-0.0000

> <Gold.Chemscore.Lipo.Weighted>
-8.7587

> <Gold.Chemscore.Internal_Hbond.Weighted>
0.0000

> <Gold.Chemscore.DEClash.Weighted>
0.1294

> <Gold.Chemscore.DEInternal.Weighted>
0.9975

> <Gold.Chemscore.Rot.Weighted>
6.1667

> <Gold.Chemscore.Internal.Correction.Weighted>
   9.000000E+99

> <Gold.Protein.RotatedTorsions>
[ 6907 6896 6895 6894 ] final -153.07 input  -60.11 | X-H torsion
[ 7974 7965 7964 7962 ] final    6.59 input  175.53 | X-H torsion
[ 8008 7997 7996 7995 ] final -136.16 input   59.86 | X-H torsion
[ 10167 10162 10161 10158 ] final  -22.72 input  -65.29 | X-H torsion
[ 10718 10713 10712 10709 ] final -176.48 input   66.30 | X-H torsion
[ 10763 10752 10751 10750 ] final  156.46 input  -60.55 | X-H torsion
[ 11005 11000 10999 10996 ] final -164.16 input  -57.11 | X-H torsion

> <Gold.Protein.ActiveResidues>
 VAL166  LYS551  ARG553  GLY616  TRP617  ASP618  TYR619  PRO620  LYS621  CYS622 
 ASP623  PHE694  ASN695  SER759  ASP760  ASP761  ALA762  ILE779  LEU786  VAL792 
 PHE793  MET794  SER795  GLU796  ALA797  LYS798  CYS799  TRP800  GLU811  SER814 

> <Gold.Protein.RotatedAtoms>
  151.2371  133.4419  159.2605 H   0  0  0  0  0  0  0  0  0  0  0  0  # atno 6907 bound_to 6896
  151.0740  134.9816  159.8333 H   0  0  0  0  0  0  0  0  0  0  0  0  # atno 6908 bound_to 6896
  152.5416  134.2315  159.8879 H   0  0  0  0  0  0  0  0  0  0  0  0  # atno 6909 bound_to 6896
  146.2433  140.0210  142.8398 H   0  0  0  0  0  0  0  0  0  0  0  0  # atno 7974 bound_to 7965
  155.3906  140.0499  157.3041 H   0  0  0  0  0  0  0  0  0  0  0  0  # atno 8008 bound_to 7997
  154.5038  140.2166  155.9253 H   0  0  0  0  0  0  0  0  0  0  0  0  # atno 8009 bound_to 7997
  156.1500  140.3137  155.8638 H   0  0  0  0  0  0  0  0  0  0  0  0  # atno 8010 bound_to 7997
  140.7286  143.4508  151.0519 H   0  0  0  0  0  0  0  0  0  0  0  0  # atno 10167 bound_to 10162
  156.8153  130.9600  151.3114 H   0  0  0  0  0  0  0  0  0  0  0  0  # atno 10718 bound_to 10713
  154.1847  135.2798  155.3041 H   0  0  0  0  0  0  0  0  0  0  0  0  # atno 10763 bound_to 10752
  154.5975  135.5540  153.7344 H   0  0  0  0  0  0  0  0  0  0  0  0  # atno 10764 bound_to 10752
  153.0128  135.6383  154.1986 H   0  0  0  0  0  0  0  0  0  0  0  0  # atno 10765 bound_to 10752
  140.5901  134.5054  157.5191 H   0  0  0  0  0  0  0  0  0  0  0  0  # atno 11005 bound_to 11000
  145.1241  140.9480  143.4583 LP  0  0  0  0  0  0  0  0  0  0  0  0  # atno 17320 bound_to 7965
  145.0452  139.3227  143.5956 LP  0  0  0  0  0  0  0  0  0  0  0  0  # atno 17321 bound_to 7965
  139.8184  143.7853  152.3175 LP  0  0  0  0  0  0  0  0  0  0  0  0  # atno 17342 bound_to 10162
  139.7927  144.7404  150.9932 LP  0  0  0  0  0  0  0  0  0  0  0  0  # atno 17343 bound_to 10162
  157.6485  130.8864  149.9586 LP  0  0  0  0  0  0  0  0  0  0  0  0  # atno 17370 bound_to 10713
  156.1020  130.3655  150.0200 LP  0  0  0  0  0  0  0  0  0  0  0  0  # atno 17371 bound_to 10713
  139.9278  134.8022  156.1018 LP  0  0  0  0  0  0  0  0  0  0  0  0  # atno 17394 bound_to 11000
  141.0941  133.6703  156.2605 LP  0  0  0  0  0  0  0  0  0  0  0  0  # atno 17395 bound_to 11000

$$$$
