AV-unprocessed.smi:2655|AV-procd|sdf|10299|dock7
  -GOLD-   2272014313D 1   1.00000     0.00000
 Structure written by MMmdl.
 34 35  0  0  0  0  0  0  0  0  1 V2000
  144.4912  132.1192  150.0848 C   0  0  0  0  0  0  0  0  0  0  0  0
  144.6855  133.5788  150.4351 C   0  0  0  0  0  0  0  0  0  0  0  0
  143.9057  134.5561  149.8885 N   0  0  0  0  0  0  0  0  0  0  0  0
  144.3305  135.7710  150.3635 N   0  0  0  0  0  0  0  0  0  0  0  0
  145.3567  135.5938  151.2120 C   0  0  0  0  0  0  0  0  0  0  0  0
  145.9583  136.4815  151.8129 O   0  0  0  0  0  0  0  0  0  0  0  0
  145.5844  134.1534  151.2448 C   0  0  0  0  0  0  0  0  0  0  0  0
  146.6576  133.4807  152.0790 C   0  0  0  0  0  0  0  0  0  0  0  0
  146.1818  132.1371  152.6541 C   0  0  0  0  0  0  0  0  0  0  0  0
  146.8168  131.0113  151.9799 N   0  0  0  0  0  0  0  0  0  0  0  0
  146.8740  129.7609  152.4610 C   0  0  0  0  0  0  0  0  0  0  0  0
  146.3890  129.4287  153.5428 O   0  0  0  0  0  0  0  0  0  0  0  0
  147.5211  128.9433  151.6135 N   0  0  0  0  0  0  0  0  0  0  0  0
  147.7747  127.5539  151.7489 C   0  0  0  0  0  0  0  0  0  0  0  0
  148.4719  126.7279  150.8197 C   0  0  0  0  0  0  0  0  0  0  0  0
  148.4389  125.4995  151.4169 C   0  0  0  0  0  0  0  0  0  0  0  0
  148.9680  124.1644  151.0190 C   0  0  0  0  0  0  0  0  0  0  0  0
  147.7788  125.5671  152.6041 O   0  0  0  0  0  0  0  0  0  0  0  0
  147.3562  126.8859  152.8082 N   0  0  0  0  0  0  0  0  0  0  0  0
  145.4120  131.7066  149.6717 H   0  0  0  0  0  0  0  0  0  0  0  0
  143.6972  131.9934  149.3481 H   0  0  0  0  0  0  0  0  0  0  0  0
  144.2283  131.5489  150.9760 H   0  0  0  0  0  0  0  0  0  0  0  0
  143.8678  136.6186  150.0683 H   0  0  0  0  0  0  0  0  0  0  0  0
  146.9425  134.1539  152.8882 H   0  0  0  0  0  0  0  0  0  0  0  0
  147.5496  133.3396  151.4673 H   0  0  0  0  0  0  0  0  0  0  0  0
  146.3782  132.0905  153.7269 H   0  0  0  0  0  0  0  0  0  0  0  0
  145.1026  132.0394  152.5325 H   0  0  0  0  0  0  0  0  0  0  0  0
  147.2408  131.1987  151.0830 H   0  0  0  0  0  0  0  0  0  0  0  0
  147.8653  129.3626  150.7624 H   0  0  0  0  0  0  0  0  0  0  0  0
  148.9257  126.9763  149.8723 H   0  0  0  0  0  0  0  0  0  0  0  0
  149.6678  124.2548  150.1880 H   0  0  0  0  0  0  0  0  0  0  0  0
  148.1573  123.5053  150.7088 H   0  0  0  0  0  0  0  0  0  0  0  0
  149.4905  123.6908  151.8503 H   0  0  0  0  0  0  0  0  0  0  0  0
  143.1973  134.4628  149.1745 H   0  0  0  0  0  0  0  0  0  0  0  0
  1 20  1  0  0  0  0
  1 21  1  0  0  0  0
  1 22  1  0  0  0  0
  1  2  1  0  0  0  0
  2  7  2  0  0  0  0
  2  3  1  0  0  0  0
  3  4  1  0  0  0  0
  3 34  1  0  0  0  0
  4 23  1  0  0  0  0
  4  5  1  0  0  0  0
  5  7  1  0  0  0  0
  5  6  2  0  0  0  0
  7  8  1  0  0  0  0
  8  9  1  0  0  0  0
  8 24  1  0  0  0  0
  8 25  1  0  0  0  0
  9 10  1  0  0  0  0
  9 26  1  0  0  0  0
  9 27  1  0  0  0  0
 10 11  1  0  0  0  0
 10 28  1  0  0  0  0
 11 12  2  0  0  0  0
 11 13  1  0  0  0  0
 13 14  1  0  0  0  0
 13 29  1  0  0  0  0
 14 19  2  0  0  0  0
 14 15  1  0  0  0  0
 15 16  2  0  0  0  0
 15 30  1  0  0  0  0
 16 17  1  0  0  0  0
 16 18  1  0  0  0  0
 17 31  1  0  0  0  0
 17 32  1  0  0  0  0
 17 33  1  0  0  0  0
 18 19  1  0  0  0  0
M  END
> <s_m_source_file>
AV-unprocessed.smi

> <i_m_source_file_index>
2655

> <i_lp_mmshare_version>
43012

> <i_f3d_flags>
0

> <s_epik_input>
W0NIM11DMT1OW05IXUMoPU8pW0NASF0xW0NIMl1bQ0gyXVtOSF1DKD1PKVtOSF1jMltjSF1jKFtDSDNdKW9uMg==

> <s_epik_cmdline>
J2VwaWtfcHl0aG9uJywgJy1waCcsICc3LjAnLCAnLXRuJywgJzgnLCAnLW1hJywgJzIwMCcsICctbWV0YWxfYmluZGluZycsICctaW1hZScsICc8aW5maWxlLm1hZT4nLCAnLW9tYWUnLCAnPG91dGZpbGUubWFlPic=

> <r_lp_tautomer_probability>
0.00220696

> <r_epik_Ionization_Penalty>
0.0273702

> <r_epik_Ionization_Penalty_Charging>
8.84748e-06

> <r_epik_Ionization_Penalty_Neutral>
0.0273613

> <r_epik_State_Penalty>
0.626781

> <r_epik_Charging_Adjusted_Penalty>
0.626789

> <i_epik_Tot_Q>
0

> <i_epik_Tot_abs_Q>
0

> <r_epik_Metal_State_Penalty>
2.03048

> <b_epik_Metal_Only>
0

> <s_lp_Force_Field>
OPLS_2005

> <r_lp_Energy>
17.132

> <b_lp_Chiralities_Consistent>
1

> <s_lp_Variant>
AV-unprocessed.smi:2655-2

> <Gold.Version>
5.8.1

> <Gold.Id.Protein>
6NUR|6NUR_protein|mol2

> <Gold.PLP.Fitness>
43.2505

> <Gold.PLP.PLP>
-35.8598

> <Gold.PLP.part.hbond>
-5.2892

> <Gold.PLP.part.metal>
0.0000

> <Gold.PLP.part.buried>
-7.6716

> <Gold.PLP.part.nonpolar>
-24.4453

> <Gold.PLP.part.repulsive>
1.1439

> <Gold.PLP.ligand.clash>
0.0000

> <Gold.PLP.ligand.torsion>
0.7885

> <Gold.PLP.Chemscore.Hbond>
2.9861

> <Gold.PLP.Chemscore.CHOScore>
0.0000

> <Gold.PLP.Chemscore.Metal>
0.0000

> <Gold.Chemscore.Hbonds>
donor molecule, donor type, donor heavy atom, donor atom, acceptor molecule, acceptor atom, score
      L1  H     3    34       P1 10186  0.28
      L1  H     4    23       P1 10171  1.00
      L1  H    10    28       P1 10747  0.70
      L1  H    13    29       P1 10747  0.77

> <Gold.PLP.Chemscore.Internal.Correction>
0.0094

> <Gold.Rescore>
     Score         DG    S(hbond)    S(metal)    S(lipo)     H(rot)  DE(clash)    DE(int)     intcor
     12.95     -15.17       2.61        0.00      49.81       1.89       0.10       2.13       ----

> <Gold.Chemscore.Fitness>
12.9462

> <Gold.Chemscore.DG>
-15.1733

> <Gold.Chemscore.ZeroCoef>
-5.4800

> <Gold.Chemscore.Hbond>
2.6081

> <Gold.Chemscore.Metal>
0.0000

> <Gold.Chemscore.Lipo>
49.8118

> <Gold.Chemscore.Internal_Hbond>
0.0000

> <Gold.Chemscore.DEClash>
0.0978

> <Gold.Chemscore.DEInternal>
2.1293

> <Gold.Chemscore.Rot>
1.8929

> <Gold.Chemscore.Internal.Correction>
   9.000000E+99

> <Gold.Chemscore.Hbonds>
donor molecule, donor type, donor heavy atom, donor atom, acceptor molecule, acceptor atom, score
      L1  H     3    34       P1 10186  0.28
      L1  H     4    23       P1 10171  0.95
      L1  H    10    28       P1 10747  0.69
      L1  H    13    29       P1 10747  0.53

> <Gold.Chemscore.Hbond.Weighted>
-8.7110

> <Gold.Chemscore.Metal.Weighted>
-0.0000

> <Gold.Chemscore.Lipo.Weighted>
-5.8280

> <Gold.Chemscore.Internal_Hbond.Weighted>
0.0000

> <Gold.Chemscore.DEClash.Weighted>
0.0978

> <Gold.Chemscore.DEInternal.Weighted>
2.1293

> <Gold.Chemscore.Rot.Weighted>
4.8457

> <Gold.Chemscore.Internal.Correction.Weighted>
   9.000000E+99

> <Gold.Protein.RotatedTorsions>
[ 6907 6896 6895 6894 ] final  124.31 input  -60.11 | X-H torsion
[ 7974 7965 7964 7962 ] final  178.54 input  175.53 | X-H torsion
[ 8008 7997 7996 7995 ] final  -98.29 input   59.86 | X-H torsion
[ 10167 10162 10161 10158 ] final  178.27 input  -65.29 | X-H torsion
[ 10718 10713 10712 10709 ] final -134.14 input   66.30 | X-H torsion
[ 10763 10752 10751 10750 ] final    6.07 input  -60.55 | X-H torsion
[ 11005 11000 10999 10996 ] final   86.41 input  -57.11 | X-H torsion

> <Gold.Protein.ActiveResidues>
 VAL166  LYS551  ARG553  GLY616  TRP617  ASP618  TYR619  PRO620  LYS621  CYS622 
 ASP623  PHE694  ASN695  SER759  ASP760  ASP761  ALA762  ILE779  LEU786  VAL792 
 PHE793  MET794  SER795  GLU796  ALA797  LYS798  CYS799  TRP800  GLU811  SER814 

> <Gold.Protein.RotatedAtoms>
  152.4089  133.6931  159.6379 H   0  0  0  0  0  0  0  0  0  0  0  0  # atno 6907 bound_to 6896
  150.7971  133.8660  159.3254 H   0  0  0  0  0  0  0  0  0  0  0  0  # atno 6908 bound_to 6896
  151.6408  135.1015  160.0192 H   0  0  0  0  0  0  0  0  0  0  0  0  # atno 6909 bound_to 6896
  144.7155  140.0413  143.6437 H   0  0  0  0  0  0  0  0  0  0  0  0  # atno 7974 bound_to 7965
  154.7993  140.0456  157.1260 H   0  0  0  0  0  0  0  0  0  0  0  0  # atno 8008 bound_to 7997
  154.9498  140.3063  155.5060 H   0  0  0  0  0  0  0  0  0  0  0  0  # atno 8009 bound_to 7997
  156.2959  140.2290  156.4575 H   0  0  0  0  0  0  0  0  0  0  0  0  # atno 8010 bound_to 7997
  139.5287  144.2700  152.0636 H   0  0  0  0  0  0  0  0  0  0  0  0  # atno 10167 bound_to 10162
  156.2523  130.7160  151.1064 H   0  0  0  0  0  0  0  0  0  0  0  0  # atno 10718 bound_to 10713
  153.2521  135.6914  153.7668 H   0  0  0  0  0  0  0  0  0  0  0  0  # atno 10763 bound_to 10752
  153.6759  135.3336  155.3166 H   0  0  0  0  0  0  0  0  0  0  0  0  # atno 10764 bound_to 10752
  154.8398  135.4511  154.1481 H   0  0  0  0  0  0  0  0  0  0  0  0  # atno 10765 bound_to 10752
  139.8945  134.8353  156.2716 H   0  0  0  0  0  0  0  0  0  0  0  0  # atno 11005 bound_to 11000
  146.0021  139.3100  143.0921 LP  0  0  0  0  0  0  0  0  0  0  0  0  # atno 17320 bound_to 7965
  145.8781  140.9379  143.0615 LP  0  0  0  0  0  0  0  0  0  0  0  0  # atno 17321 bound_to 7965
  140.2160  144.4514  150.6363 LP  0  0  0  0  0  0  0  0  0  0  0  0  # atno 17342 bound_to 10162
  140.6449  143.2211  151.6207 LP  0  0  0  0  0  0  0  0  0  0  0  0  # atno 17343 bound_to 10162
  157.7219  131.0676  150.6099 LP  0  0  0  0  0  0  0  0  0  0  0  0  # atno 17370 bound_to 10713
  156.6180  130.4398  149.5833 LP  0  0  0  0  0  0  0  0  0  0  0  0  # atno 17371 bound_to 10713
  141.0097  133.7103  156.1091 LP  0  0  0  0  0  0  0  0  0  0  0  0  # atno 17394 bound_to 11000
  140.7385  134.4176  157.5557 LP  0  0  0  0  0  0  0  0  0  0  0  0  # atno 17395 bound_to 11000

$$$$
