AV-unprocessed.smi:2783|AV-procd|sdf|10724|dock8
  -GOLD-   2272015163D 1   1.00000     0.00000
 Structure written by MMmdl.
 29 29  0  0  0  0  0  0  0  0  1 V2000
  150.2373  145.0410  160.0014 C   0  0  0  0  0  0  0  0  0  0  0  0
  150.4792  143.7532  159.4375 O   0  0  0  0  0  0  0  0  0  0  0  0
  151.8167  143.4358  159.0239 C   0  0  0  0  0  0  0  0  0  0  0  0
  152.4339  144.6078  158.2245 C   0  0  0  0  0  0  0  0  0  0  0  0
  152.6141  143.2327  160.3244 C   0  0  0  0  0  0  0  0  0  0  0  0
  151.8430  142.1190  158.2135 C   0  0  0  0  0  0  0  0  0  0  0  0
  152.4519  141.1444  158.6560 O   0  0  0  0  0  0  0  0  0  0  0  0
  151.1464  142.1135  157.0605 N   0  0  0  0  0  0  0  0  0  0  0  0
  150.9930  141.0686  156.1075 C   0  0  0  0  0  0  0  0  0  0  0  0
  151.8897  139.9795  155.9845 C   0  0  0  0  0  0  0  0  0  0  0  0
  151.6472  139.0129  154.9885 C   0  0  0  0  0  0  0  0  0  0  0  0
  150.6056  139.0710  154.1329 N   0  0  0  0  0  0  0  0  0  0  0  0
  149.7611  140.1176  154.2415 C   0  0  0  0  0  0  0  0  0  0  0  0
  149.9106  141.1405  155.2006 C   0  0  0  0  0  0  0  0  0  0  0  0
  149.0152  142.1724  155.2416 O   0  0  0  0  0  0  0  0  0  0  0  0
  149.1647  145.1685  160.1457 H   0  0  0  0  0  0  0  0  0  0  0  0
  150.5808  145.8542  159.3622 H   0  0  0  0  0  0  0  0  0  0  0  0
  150.7077  145.1443  160.9792 H   0  0  0  0  0  0  0  0  0  0  0  0
  153.5038  144.4640  158.0686 H   0  0  0  0  0  0  0  0  0  0  0  0
  152.3088  145.5518  158.7555 H   0  0  0  0  0  0  0  0  0  0  0  0
  151.9789  144.7179  157.2394 H   0  0  0  0  0  0  0  0  0  0  0  0
  153.6577  142.9880  160.1217 H   0  0  0  0  0  0  0  0  0  0  0  0
  152.1961  142.4257  160.9278 H   0  0  0  0  0  0  0  0  0  0  0  0
  152.6016  144.1354  160.9358 H   0  0  0  0  0  0  0  0  0  0  0  0
  150.6128  142.9495  156.8691 H   0  0  0  0  0  0  0  0  0  0  0  0
  152.7575  139.8731  156.6166 H   0  0  0  0  0  0  0  0  0  0  0  0
  152.3148  138.1719  154.8716 H   0  0  0  0  0  0  0  0  0  0  0  0
  148.9409  140.1408  153.5391 H   0  0  0  0  0  0  0  0  0  0  0  0
  149.4300  143.0208  155.2858 H   0  0  0  0  0  0  0  0  0  0  0  0
  1  2  1  0  0  0  0
  1 16  1  0  0  0  0
  1 17  1  0  0  0  0
  1 18  1  0  0  0  0
  2  3  1  0  0  0  0
  3  4  1  0  0  0  0
  3  5  1  0  0  0  0
  3  6  1  0  0  0  0
  4 19  1  0  0  0  0
  4 20  1  0  0  0  0
  4 21  1  0  0  0  0
  5 22  1  0  0  0  0
  5 23  1  0  0  0  0
  5 24  1  0  0  0  0
  6  7  2  0  0  0  0
  6  8  1  0  0  0  0
  8  9  1  0  0  0  0
  8 25  1  0  0  0  0
  9 14  1  0  0  0  0
  9 10  2  0  0  0  0
 10 11  1  0  0  0  0
 10 26  1  0  0  0  0
 11 12  2  0  0  0  0
 11 27  1  0  0  0  0
 12 13  1  0  0  0  0
 13 14  2  0  0  0  0
 13 28  1  0  0  0  0
 14 15  1  0  0  0  0
 15 29  1  0  0  0  0
M  END
> <s_m_source_file>
AV-unprocessed.smi

> <i_m_source_file_index>
2783

> <i_lp_mmshare_version>
43012

> <i_f3d_flags>
0

> <s_epik_input>
W0NIM11PQyhbQ0gzXSkoW0NIM10pQyg9TylbTkhdYzFbY0hdW2NIXW5bY0hdYzFbT0hd

> <s_epik_cmdline>
J2VwaWtfcHl0aG9uJywgJy1waCcsICc3LjAnLCAnLXRuJywgJzgnLCAnLW1hJywgJzIwMCcsICctbWV0YWxfYmluZGluZycsICctaW1hZScsICc8aW5maWxlLm1hZT4nLCAnLW9tYWUnLCAnPG91dGZpbGUubWFlPic=

> <r_lp_tautomer_probability>
0.43658

> <r_epik_Ionization_Penalty>
0.0236053

> <r_epik_Ionization_Penalty_Charging>
0

> <r_epik_Ionization_Penalty_Neutral>
0.0236053

> <r_epik_State_Penalty>
0.499983

> <r_epik_Charging_Adjusted_Penalty>
0.499983

> <i_epik_Tot_Q>
0

> <i_epik_Tot_abs_Q>
0

> <r_epik_Metal_State_Penalty>
0.746226

> <b_epik_Metal_Only>
0

> <s_lp_Force_Field>
OPLS_2005

> <r_lp_Energy>
14.4929

> <b_lp_Chiralities_Consistent>
1

> <s_lp_Variant>
AV-unprocessed.smi:2783-2

> <Gold.Version>
5.8.1

> <Gold.Id.Protein>
6NUR|6NUR_protein|mol2

> <Gold.PLP.Fitness>
37.8789

> <Gold.PLP.PLP>
-34.1007

> <Gold.PLP.part.hbond>
-1.7301

> <Gold.PLP.part.metal>
0.0000

> <Gold.PLP.part.buried>
-2.2871

> <Gold.PLP.part.nonpolar>
-29.6493

> <Gold.PLP.part.repulsive>
0.3461

> <Gold.PLP.ligand.clash>
0.0000

> <Gold.PLP.ligand.torsion>
0.2233

> <Gold.PLP.Chemscore.Hbond>
0.8000

> <Gold.PLP.Chemscore.CHOScore>
0.5968

> <Gold.PLP.Chemscore.Metal>
0.0000

> <Gold.Chemscore.Hbonds>
donor molecule, donor type, donor heavy atom, donor atom, acceptor molecule, acceptor atom, score
      L1  H    15    29       P1  8028  0.72
      L1  C    13    28       P1  7957  0.70

> <Gold.PLP.Chemscore.Internal.Correction>
0.0344

> <Gold.Rescore>
     Score         DG    S(hbond)    S(metal)    S(lipo)     H(rot)  DE(clash)    DE(int)     intcor
     13.00     -14.28       0.99        0.00      85.19       1.75       0.04       1.24       ----

> <Gold.Chemscore.Fitness>
12.9961

> <Gold.Chemscore.DG>
-14.2769

> <Gold.Chemscore.ZeroCoef>
-5.4800

> <Gold.Chemscore.Hbond>
0.9915

> <Gold.Chemscore.Metal>
0.0000

> <Gold.Chemscore.Lipo>
85.1887

> <Gold.Chemscore.Internal_Hbond>
0.0000

> <Gold.Chemscore.DEClash>
0.0374

> <Gold.Chemscore.DEInternal>
1.2434

> <Gold.Chemscore.Rot>
1.7507

> <Gold.Chemscore.Internal.Correction>
   9.000000E+99

> <Gold.Chemscore.Hbonds>
donor molecule, donor type, donor heavy atom, donor atom, acceptor molecule, acceptor atom, score
      L1  H    15    29       P1  8028  0.72

> <Gold.Chemscore.Hbond.Weighted>
-3.3115

> <Gold.Chemscore.Metal.Weighted>
-0.0000

> <Gold.Chemscore.Lipo.Weighted>
-9.9671

> <Gold.Chemscore.Internal_Hbond.Weighted>
0.0000

> <Gold.Chemscore.DEClash.Weighted>
0.0374

> <Gold.Chemscore.DEInternal.Weighted>
1.2434

> <Gold.Chemscore.Rot.Weighted>
4.4817

> <Gold.Chemscore.Internal.Correction.Weighted>
   9.000000E+99

> <Gold.Protein.RotatedTorsions>
[ 6907 6896 6895 6894 ] final  137.58 input  -60.11 | X-H torsion
[ 7974 7965 7964 7962 ] final   93.60 input  175.53 | X-H torsion
[ 8008 7997 7996 7995 ] final  128.28 input   59.86 | X-H torsion
[ 10167 10162 10161 10158 ] final  -53.75 input  -65.29 | X-H torsion
[ 10718 10713 10712 10709 ] final -110.11 input   66.30 | X-H torsion
[ 10763 10752 10751 10750 ] final -176.48 input  -60.55 | X-H torsion
[ 11005 11000 10999 10996 ] final -142.18 input  -57.11 | X-H torsion

> <Gold.Protein.ActiveResidues>
 VAL166  LYS551  ARG553  GLY616  TRP617  ASP618  TYR619  PRO620  LYS621  CYS622 
 ASP623  PHE694  ASN695  SER759  ASP760  ASP761  ALA762  ILE779  LEU786  VAL792 
 PHE793  MET794  SER795  GLU796  ALA797  LYS798  CYS799  TRP800  GLU811  SER814 

> <Gold.Protein.RotatedAtoms>
  152.2765  133.5430  159.5470 H   0  0  0  0  0  0  0  0  0  0  0  0  # atno 6907 bound_to 6896
  150.7179  134.0624  159.3845 H   0  0  0  0  0  0  0  0  0  0  0  0  # atno 6908 bound_to 6896
  151.8537  135.0549  160.0512 H   0  0  0  0  0  0  0  0  0  0  0  0  # atno 6909 bound_to 6896
  145.4767  139.2280  143.2905 H   0  0  0  0  0  0  0  0  0  0  0  0  # atno 7974 bound_to 7965
  156.2911  140.2648  156.2411 H   0  0  0  0  0  0  0  0  0  0  0  0  # atno 8008 bound_to 7997
  154.9976  140.0388  157.2365 H   0  0  0  0  0  0  0  0  0  0  0  0  # atno 8009 bound_to 7997
  154.7630  140.2764  155.6204 H   0  0  0  0  0  0  0  0  0  0  0  0  # atno 8010 bound_to 7997
  140.6468  143.2540  151.4836 H   0  0  0  0  0  0  0  0  0  0  0  0  # atno 10167 bound_to 10162
  156.0573  130.5798  150.8192 H   0  0  0  0  0  0  0  0  0  0  0  0  # atno 10718 bound_to 10713
  154.5718  135.2828  155.0820 H   0  0  0  0  0  0  0  0  0  0  0  0  # atno 10763 bound_to 10752
  154.2189  135.6394  153.5142 H   0  0  0  0  0  0  0  0  0  0  0  0  # atno 10764 bound_to 10752
  153.0060  135.5510  154.6344 H   0  0  0  0  0  0  0  0  0  0  0  0  # atno 10765 bound_to 10752
  140.8251  134.2584  157.4882 H   0  0  0  0  0  0  0  0  0  0  0  0  # atno 11005 bound_to 11000
  146.2365  140.5550  142.8953 LP  0  0  0  0  0  0  0  0  0  0  0  0  # atno 17320 bound_to 7965
  144.7913  140.6036  143.6540 LP  0  0  0  0  0  0  0  0  0  0  0  0  # atno 17321 bound_to 7965
  139.5679  144.1997  152.1793 LP  0  0  0  0  0  0  0  0  0  0  0  0  # atno 17342 bound_to 10162
  140.1285  144.5310  150.6817 LP  0  0  0  0  0  0  0  0  0  0  0  0  # atno 17343 bound_to 10162
  157.5553  131.0945  150.9637 LP  0  0  0  0  0  0  0  0  0  0  0  0  # atno 17370 bound_to 10713
  156.9887  130.5555  149.5301 LP  0  0  0  0  0  0  0  0  0  0  0  0  # atno 17371 bound_to 10713
  139.8707  134.9556  156.4212 LP  0  0  0  0  0  0  0  0  0  0  0  0  # atno 17394 bound_to 11000
  140.9058  133.7747  155.9733 LP  0  0  0  0  0  0  0  0  0  0  0  0  # atno 17395 bound_to 11000

$$$$
