AV-unprocessed.smi:2583|AV-procd|sdf|10140|dock6
  -GOLD-   2272014153D 1   1.00000     0.00000
 Structure written by MMmdl.
 54 56  0  0  0  0  0  0  0  0  2 V2000
  153.1715  142.4166  161.3532 C   0  0  0  0  0  0  0  0  0  0  0  0
  152.4165  142.6003  160.0533 C   0  0  0  0  0  0  0  0  0  0  0  0
  152.2791  143.8745  159.4655 C   0  0  0  0  0  0  0  0  0  0  0  0
  151.6264  144.0865  158.3036 N   0  0  0  0  0  0  0  0  0  0  0  0
  151.0745  143.0212  157.6848 C   0  0  0  0  0  0  0  0  0  0  0  0
  151.1347  141.7049  158.1890 C   0  0  0  0  0  0  0  0  0  0  0  0
  150.5172  140.6735  157.4309 N   0  0  0  0  0  0  0  0  0  0  0  0
  150.1055  139.4630  157.8454 C   0  0  0  0  0  0  0  0  0  0  0  0
  150.2096  139.0284  158.9922 O   0  0  0  0  0  0  0  0  0  0  0  0
  149.5351  138.7762  156.8452 N   0  0  0  0  0  0  0  0  0  0  0  0
  148.9587  137.4405  156.9686 C   0  0  0  0  0  0  0  0  0  0  0  0
  148.9659  136.7341  155.6109 C   0  0  0  0  0  0  0  0  0  0  0  0
  148.2661  135.3666  155.6966 C   0  0  0  0  0  0  0  0  0  0  0  0
  146.8652  135.4934  156.1338 N   0  0  0  0  0  0  0  0  0  0  0  0
  146.1807  134.1793  156.1365 C   0  0  2  0  0  0  0  0  0  0  0  0
  146.0758  133.5338  154.7304 C   0  0  0  0  0  0  0  0  0  0  0  0
  145.1044  134.3014  153.8156 C   0  0  0  0  0  0  0  0  0  0  0  0
  143.7516  134.3821  154.4188 N   0  3  2  0  0  0  0  0  0  0  0  0
  142.7754  135.0425  153.5261 C   0  0  0  0  0  0  0  0  0  0  0  0
  143.7754  134.9835  155.7749 C   0  0  0  0  0  0  0  0  0  0  0  0
  144.7376  134.2198  156.7028 C   0  0  0  0  0  0  0  0  0  0  0  0
  146.8599  136.1124  157.4702 C   0  0  0  0  0  0  0  0  0  0  0  0
  147.5088  137.5068  157.4627 C   0  0  0  0  0  0  0  0  0  0  0  0
  151.8366  141.4940  159.4005 C   0  0  0  0  0  0  0  0  0  0  0  0
  153.5595  143.3655  161.7247 H   0  0  0  0  0  0  0  0  0  0  0  0
  154.0120  141.7372  161.2100 H   0  0  0  0  0  0  0  0  0  0  0  0
  152.5152  141.9949  162.1149 H   0  0  0  0  0  0  0  0  0  0  0  0
  152.7083  144.7474  159.9352 H   0  0  0  0  0  0  0  0  0  0  0  0
  150.5614  143.2295  156.7572 H   0  0  0  0  0  0  0  0  0  0  0  0
  150.2961  140.9137  156.4756 H   0  0  0  0  0  0  0  0  0  0  0  0
  149.4898  139.2102  155.9350 H   0  0  0  0  0  0  0  0  0  0  0  0
  149.5546  136.8530  157.6701 H   0  0  0  0  0  0  0  0  0  0  0  0
  148.4668  137.3507  154.8617 H   0  0  0  0  0  0  0  0  0  0  0  0
  149.9920  136.5996  155.2671 H   0  0  0  0  0  0  0  0  0  0  0  0
  148.3312  134.9317  154.7030 H   0  0  0  0  0  0  0  0  0  0  0  0
  148.8104  134.7050  156.3724 H   0  0  0  0  0  0  0  0  0  0  0  0
  146.7694  133.5148  156.7711 H   0  0  0  0  0  0  0  0  0  0  0  0
  147.0390  133.4006  154.2435 H   0  0  0  0  0  0  0  0  0  0  0  0
  145.6989  132.5168  154.8482 H   0  0  0  0  0  0  0  0  0  0  0  0
  145.4828  135.3064  153.6218 H   0  0  0  0  0  0  0  0  0  0  0  0
  145.0392  133.7966  152.8509 H   0  0  0  0  0  0  0  0  0  0  0  0
  143.0509  136.0824  153.3453 H   0  0  0  0  0  0  0  0  0  0  0  0
  141.7775  135.0240  153.9653 H   0  0  0  0  0  0  0  0  0  0  0  0
  142.7247  134.5298  152.5651 H   0  0  0  0  0  0  0  0  0  0  0  0
  144.0671  136.0328  155.7085 H   0  0  0  0  0  0  0  0  0  0  0  0
  142.7700  134.9604  156.1970 H   0  0  0  0  0  0  0  0  0  0  0  0
  144.3774  133.1942  156.7942 H   0  0  0  0  0  0  0  0  0  0  0  0
  144.6849  134.6045  157.7192 H   0  0  0  0  0  0  0  0  0  0  0  0
  145.8444  136.2594  157.8287 H   0  0  0  0  0  0  0  0  0  0  0  0
  147.3652  135.4624  158.1865 H   0  0  0  0  0  0  0  0  0  0  0  0
  147.4732  137.9283  158.4679 H   0  0  0  0  0  0  0  0  0  0  0  0
  146.9256  138.1752  156.8273 H   0  0  0  0  0  0  0  0  0  0  0  0
  151.9525  140.5122  159.8324 H   0  0  0  0  0  0  0  0  0  0  0  0
  143.4338  133.4305  154.5349 H   0  0  0  0  0  0  0  0  0  0  0  0
  1  2  1  0  0  0  0
  1 25  1  0  0  0  0
  1 26  1  0  0  0  0
  1 27  1  0  0  0  0
  2 24  1  0  0  0  0
  2  3  2  0  0  0  0
  3  4  1  0  0  0  0
  3 28  1  0  0  0  0
  4  5  2  0  0  0  0
  5  6  1  0  0  0  0
  5 29  1  0  0  0  0
  6  7  1  0  0  0  0
  6 24  2  0  0  0  0
  7  8  1  0  0  0  0
  7 30  1  0  0  0  0
  8  9  2  0  0  0  0
  8 10  1  0  0  0  0
 10 11  1  0  0  0  0
 10 31  1  0  0  0  0
 11 23  1  0  0  0  0
 11 12  1  0  0  0  0
 11 32  1  0  0  0  0
 12 13  1  0  0  0  0
 12 33  1  0  0  0  0
 12 34  1  0  0  0  0
 13 14  1  0  0  0  0
 13 35  1  0  0  0  0
 13 36  1  0  0  0  0
 14 15  1  0  0  0  0
 14 22  1  0  0  0  0
 15 21  1  0  0  0  0
 15 16  1  0  0  0  0
 15 37  1  0  0  0  0
 16 17  1  0  0  0  0
 16 38  1  0  0  0  0
 16 39  1  0  0  0  0
 17 18  1  0  0  0  0
 17 40  1  0  0  0  0
 17 41  1  0  0  0  0
 18 19  1  0  0  0  0
 18 20  1  0  0  0  0
 18 54  1  0  0  0  0
 19 42  1  0  0  0  0
 19 43  1  0  0  0  0
 19 44  1  0  0  0  0
 20 21  1  0  0  0  0
 20 45  1  0  0  0  0
 20 46  1  0  0  0  0
 21 47  1  0  0  0  0
 21 48  1  0  0  0  0
 22 23  1  0  0  0  0
 22 49  1  0  0  0  0
 22 50  1  0  0  0  0
 23 51  1  0  0  0  0
 23 52  1  0  0  0  0
 24 53  1  0  0  0  0
M  CHG  1  18   1
M  END
> <s_m_source_file>
AV-unprocessed.smi

> <i_m_source_file_index>
2583

> <i_lp_mmshare_version>
43012

> <i_f3d_flags>
0

> <s_epik_input>
W0NIM11jMVtjSF1uW2NIXWMoW2NIXTEpW05IXUMoPU8pW05IXVtDSF0yW0NIMl1bQ0gyXU4oW0NIMl1bQ0gyXTIpW0NIXTNbQ0gyXVtDSDJdTihbQ0gzXSlbQ0gyXVtDSDJdMw==

> <s_epik_cmdline>
J2VwaWtfcHl0aG9uJywgJy1waCcsICc3LjAnLCAnLXRuJywgJzgnLCAnLW1hJywgJzIwMCcsICctbWV0YWxfYmluZGluZycsICctaW1hZScsICc8aW5maWxlLm1hZT4nLCAnLW9tYWUnLCAnPG91dGZpbGUubWFlPic=

> <r_epik_Ionization_Penalty>
1.01912

> <r_epik_Ionization_Penalty_Charging>
0.000974969

> <r_epik_Ionization_Penalty_Neutral>
1.01814

> <r_epik_State_Penalty>
1.10721

> <r_epik_Charging_Adjusted_Penalty>
1.10819

> <i_epik_Tot_Q>
1

> <i_epik_Tot_abs_Q>
1

> <r_epik_Metal_State_Penalty>
1.10135

> <b_epik_Metal_Only>
0

> <s_lp_Force_Field>
OPLS_2005

> <r_lp_Energy>
36.2524

> <b_lp_Chiralities_Consistent>
1

> <s_lp_Variant>
AV-unprocessed.smi:2583-6

> <Gold.Version>
5.8.1

> <Gold.Id.Protein>
6NUR|6NUR_protein|mol2

> <Gold.PLP.Fitness>
36.8552

> <Gold.PLP.PLP>
-28.8003

> <Gold.PLP.part.hbond>
-1.4548

> <Gold.PLP.part.metal>
0.0000

> <Gold.PLP.part.buried>
-5.9047

> <Gold.PLP.part.nonpolar>
-21.3916

> <Gold.PLP.part.repulsive>
0.1408

> <Gold.PLP.ligand.clash>
0.0000

> <Gold.PLP.ligand.torsion>
0.4744

> <Gold.PLP.Chemscore.Hbond>
2.0000

> <Gold.PLP.Chemscore.CHOScore>
1.0000

> <Gold.PLP.Chemscore.Metal>
0.0000

> <Gold.Chemscore.Hbonds>
donor molecule, donor type, donor heavy atom, donor atom, acceptor molecule, acceptor atom, score
      L1  H    18    54       P1 10957  2.00
      L1  C     5    29       P1  8028  1.00

> <Gold.PLP.Chemscore.Internal.Correction>
0.0036

> <Gold.Rescore>
     Score         DG    S(hbond)    S(metal)    S(lipo)     H(rot)  DE(clash)    DE(int)     intcor
     13.51     -14.98       1.00        0.00      78.82       1.20       0.00       1.46       ----

> <Gold.Chemscore.Fitness>
13.5098

> <Gold.Chemscore.DG>
-14.9768

> <Gold.Chemscore.ZeroCoef>
-5.4800

> <Gold.Chemscore.Hbond>
1.0000

> <Gold.Chemscore.Metal>
0.0000

> <Gold.Chemscore.Lipo>
78.8211

> <Gold.Chemscore.Internal_Hbond>
0.0000

> <Gold.Chemscore.DEClash>
0.0030

> <Gold.Chemscore.DEInternal>
1.4640

> <Gold.Chemscore.Rot>
1.1974

> <Gold.Chemscore.Internal.Correction>
   9.000000E+99

> <Gold.Chemscore.Hbonds>
donor molecule, donor type, donor heavy atom, donor atom, acceptor molecule, acceptor atom, score
      L1  H    18    54       P1 10957  1.00

> <Gold.Chemscore.Hbond.Weighted>
-3.3400

> <Gold.Chemscore.Metal.Weighted>
-0.0000

> <Gold.Chemscore.Lipo.Weighted>
-9.2221

> <Gold.Chemscore.Internal_Hbond.Weighted>
0.0000

> <Gold.Chemscore.DEClash.Weighted>
0.0030

> <Gold.Chemscore.DEInternal.Weighted>
1.4640

> <Gold.Chemscore.Rot.Weighted>
3.0652

> <Gold.Chemscore.Internal.Correction.Weighted>
   9.000000E+99

> <Gold.Protein.RotatedTorsions>
[ 6907 6896 6895 6894 ] final  113.62 input  -60.11 | X-H torsion
[ 7974 7965 7964 7962 ] final -158.09 input  175.53 | X-H torsion
[ 8008 7997 7996 7995 ] final   30.53 input   59.86 | X-H torsion
[ 10167 10162 10161 10158 ] final -154.12 input  -65.29 | X-H torsion
[ 10718 10713 10712 10709 ] final -102.00 input   66.30 | X-H torsion
[ 10763 10752 10751 10750 ] final  -38.32 input  -60.55 | X-H torsion
[ 11005 11000 10999 10996 ] final  -44.79 input  -57.11 | X-H torsion

> <Gold.Protein.ActiveResidues>
 VAL166  LYS551  ARG553  GLY616  TRP617  ASP618  TYR619  PRO620  LYS621  CYS622 
 ASP623  PHE694  ASN695  SER759  ASP760  ASP761  ALA762  ILE779  LEU786  VAL792 
 PHE793  MET794  SER795  GLU796  ALA797  LYS798  CYS799  TRP800  GLU811  SER814 

> <Gold.Protein.RotatedAtoms>
  152.4850  133.8349  159.7122 H   0  0  0  0  0  0  0  0  0  0  0  0  # atno 6907 bound_to 6896
  150.8929  133.7210  159.2906 H   0  0  0  0  0  0  0  0  0  0  0  0  # atno 6908 bound_to 6896
  151.4677  135.1047  159.9795 H   0  0  0  0  0  0  0  0  0  0  0  0  # atno 6909 bound_to 6896
  144.7520  140.3877  143.6040 H   0  0  0  0  0  0  0  0  0  0  0  0  # atno 7974 bound_to 7965
  155.0920  140.3221  155.4571 H   0  0  0  0  0  0  0  0  0  0  0  0  # atno 8008 bound_to 7997
  156.2740  140.2076  156.5993 H   0  0  0  0  0  0  0  0  0  0  0  0  # atno 8009 bound_to 7997
  154.6896  140.0518  157.0337 H   0  0  0  0  0  0  0  0  0  0  0  0  # atno 8010 bound_to 7997
  139.7039  143.9217  152.2440 H   0  0  0  0  0  0  0  0  0  0  0  0  # atno 10167 bound_to 10162
  156.0214  130.5400  150.7045 H   0  0  0  0  0  0  0  0  0  0  0  0  # atno 10718 bound_to 10713
  153.9108  135.6792  153.4751 H   0  0  0  0  0  0  0  0  0  0  0  0  # atno 10763 bound_to 10752
  153.1079  135.4797  154.8981 H   0  0  0  0  0  0  0  0  0  0  0  0  # atno 10764 bound_to 10752
  154.7528  135.3189  154.8481 H   0  0  0  0  0  0  0  0  0  0  0  0  # atno 10765 bound_to 10752
  141.0473  133.6756  156.2922 H   0  0  0  0  0  0  0  0  0  0  0  0  # atno 11005 bound_to 11000
  145.6910  139.1639  143.2647 LP  0  0  0  0  0  0  0  0  0  0  0  0  # atno 17320 bound_to 7965
  146.1483  140.6961  142.9334 LP  0  0  0  0  0  0  0  0  0  0  0  0  # atno 17321 bound_to 7965
  139.9068  144.6880  150.8606 LP  0  0  0  0  0  0  0  0  0  0  0  0  # atno 17342 bound_to 10162
  140.7717  143.3473  151.2085 LP  0  0  0  0  0  0  0  0  0  0  0  0  # atno 17343 bound_to 10162
  157.4698  131.0892  151.0655 LP  0  0  0  0  0  0  0  0  0  0  0  0  # atno 17370 bound_to 10713
  157.1119  130.6025  149.5484 LP  0  0  0  0  0  0  0  0  0  0  0  0  # atno 17371 bound_to 10713
  140.6122  134.5447  157.5535 LP  0  0  0  0  0  0  0  0  0  0  0  0  # atno 17394 bound_to 11000
  139.9322  134.7942  156.0899 LP  0  0  0  0  0  0  0  0  0  0  0  0  # atno 17395 bound_to 11000

$$$$
