AV-unprocessed.smi:942|AV-procd|sdf|4226|dock10
  -GOLD-   22720 2133D 1   1.00000     0.00000
 Structure written by MMmdl.
 42 44  0  0  0  0  0  0  0  0  1 V2000
  148.1934  142.5681  158.7960 O   0  0  0  0  0  0  0  0  0  0  0  0
  149.2831  142.4132  158.2438 C   0  0  0  0  0  0  0  0  0  0  0  0
  149.4484  141.6977  157.1213 N   0  0  0  0  0  0  0  0  0  0  0  0
  148.4039  140.9491  156.4189 C   0  0  1  0  0  0  0  0  0  0  0  0
  147.3213  141.9141  155.8931 C   0  0  0  0  0  0  0  0  0  0  0  0
  147.4105  141.8887  154.3601 C   0  0  0  0  0  0  0  0  0  0  0  0
  148.7647  141.2581  154.0393 C   0  0  0  0  0  0  0  0  0  0  0  0
  148.9577  140.2376  155.1656 C   0  0  1  0  0  0  0  0  0  0  0  0
  150.3119  139.7101  155.3114 N   0  0  0  0  0  0  0  0  0  0  0  0
  150.7138  138.3959  155.5331 C   0  0  0  0  0  0  0  0  0  0  0  0
  152.0884  138.4081  155.5999 C   0  0  0  0  0  0  0  0  0  0  0  0
  152.5545  139.7096  155.4393 N   0  0  0  0  0  0  0  0  0  0  0  0
  151.4476  140.4232  155.2827 C   0  0  0  0  0  0  0  0  0  0  0  0
  150.5499  143.0385  158.8419 C   0  0  0  0  0  0  0  0  0  0  0  0
  151.1622  144.0712  157.8714 C   0  0  0  0  0  0  0  0  0  0  0  0
  152.4402  144.6970  158.4540 C   0  0  0  0  0  0  0  0  0  0  0  0
  153.4696  143.6180  158.8264 C   0  0  0  0  0  0  0  0  0  0  0  0
  152.8662  142.5810  159.7871 C   0  0  0  0  0  0  0  0  0  0  0  0
  151.5900  141.9558  159.2007 C   0  0  0  0  0  0  0  0  0  0  0  0
  150.3820  141.6300  156.7426 H   0  0  0  0  0  0  0  0  0  0  0  0
  147.9559  140.2067  157.0818 H   0  0  0  0  0  0  0  0  0  0  0  0
  146.3280  141.6060  156.2214 H   0  0  0  0  0  0  0  0  0  0  0  0
  147.4756  142.9278  156.2660 H   0  0  0  0  0  0  0  0  0  0  0  0
  146.6135  141.2613  153.9589 H   0  0  0  0  0  0  0  0  0  0  0  0
  147.3006  142.8801  153.9198 H   0  0  0  0  0  0  0  0  0  0  0  0
  148.7901  140.8041  153.0482 H   0  0  0  0  0  0  0  0  0  0  0  0
  149.5350  142.0296  154.0799 H   0  0  0  0  0  0  0  0  0  0  0  0
  148.3099  139.3864  154.9493 H   0  0  0  0  0  0  0  0  0  0  0  0
  150.0168  137.5761  155.6200 H   0  0  0  0  0  0  0  0  0  0  0  0
  152.7717  137.5862  155.7559 H   0  0  0  0  0  0  0  0  0  0  0  0
  151.4628  141.4929  155.1323 H   0  0  0  0  0  0  0  0  0  0  0  0
  150.2743  143.5601  159.7604 H   0  0  0  0  0  0  0  0  0  0  0  0
  151.3985  143.5983  156.9168 H   0  0  0  0  0  0  0  0  0  0  0  0
  150.4380  144.8579  157.6541 H   0  0  0  0  0  0  0  0  0  0  0  0
  152.8744  145.3922  157.7348 H   0  0  0  0  0  0  0  0  0  0  0  0
  152.1893  145.2843  159.3382 H   0  0  0  0  0  0  0  0  0  0  0  0
  153.8180  143.1179  157.9217 H   0  0  0  0  0  0  0  0  0  0  0  0
  154.3458  144.0808  159.2810 H   0  0  0  0  0  0  0  0  0  0  0  0
  153.5978  141.8012  160.0000 H   0  0  0  0  0  0  0  0  0  0  0  0
  152.6352  143.0568  160.7409 H   0  0  0  0  0  0  0  0  0  0  0  0
  151.1668  141.2514  159.9181 H   0  0  0  0  0  0  0  0  0  0  0  0
  151.8515  141.3746  158.3148 H   0  0  0  0  0  0  0  0  0  0  0  0
  1  2  2  0  0  0  0
  2  3  1  0  0  0  0
  2 14  1  0  0  0  0
  3  4  1  0  0  0  0
  3 20  1  0  0  0  0
  4  8  1  0  0  0  0
  4  5  1  0  0  0  0
  4 21  1  0  0  0  0
  5  6  1  0  0  0  0
  5 22  1  0  0  0  0
  5 23  1  0  0  0  0
  6  7  1  0  0  0  0
  6 24  1  0  0  0  0
  6 25  1  0  0  0  0
  7  8  1  0  0  0  0
  7 26  1  0  0  0  0
  7 27  1  0  0  0  0
  8  9  1  0  0  0  0
  8 28  1  0  0  0  0
  9 13  1  0  0  0  0
  9 10  1  0  0  0  0
 10 11  2  0  0  0  0
 10 29  1  0  0  0  0
 11 12  1  0  0  0  0
 11 30  1  0  0  0  0
 12 13  2  0  0  0  0
 13 31  1  0  0  0  0
 14 19  1  0  0  0  0
 14 15  1  0  0  0  0
 14 32  1  0  0  0  0
 15 16  1  0  0  0  0
 15 33  1  0  0  0  0
 15 34  1  0  0  0  0
 16 17  1  0  0  0  0
 16 35  1  0  0  0  0
 16 36  1  0  0  0  0
 17 18  1  0  0  0  0
 17 37  1  0  0  0  0
 17 38  1  0  0  0  0
 18 19  1  0  0  0  0
 18 39  1  0  0  0  0
 18 40  1  0  0  0  0
 19 41  1  0  0  0  0
 19 42  1  0  0  0  0
M  END
> <s_m_source_file>
AV-unprocessed.smi

> <i_m_source_file_index>
942

> <i_lp_mmshare_version>
43012

> <i_f3d_flags>
0

> <s_epik_input>
W0NIMl0xW0NIMl1bQ0gyXVtDSDJdW0NIMl1bQ0hdMUMoPU8pW05IXVtDQEBIXTJbQ0gyXVtDSDJdW0NIMl1bQ0BIXTJuM1tjSF1bY0hdbltjSF0z

> <s_epik_cmdline>
J2VwaWtfcHl0aG9uJywgJy1waCcsICc3LjAnLCAnLXRuJywgJzgnLCAnLW1hJywgJzIwMCcsICctbWV0YWxfYmluZGluZycsICctaW1hZScsICc8aW5maWxlLm1hZT4nLCAnLW9tYWUnLCAnPG91dGZpbGUubWFlPic=

> <r_lp_tautomer_probability>
1

> <r_epik_Ionization_Penalty>
0.778458

> <r_epik_Ionization_Penalty_Charging>
0.778458

> <r_epik_Ionization_Penalty_Neutral>
2.79355e-08

> <r_epik_State_Penalty>
0.807804

> <r_epik_Charging_Adjusted_Penalty>
1.58626

> <i_epik_Tot_Q>
0

> <i_epik_Tot_abs_Q>
0

> <r_epik_Metal_State_Penalty>
0.343007

> <b_epik_Metal_Only>
0

> <s_lp_Force_Field>
OPLS_2005

> <r_lp_Energy>
33.2342

> <b_lp_Chiralities_Consistent>
1

> <s_lp_Variant>
AV-unprocessed.smi:942-6

> <Gold.Version>
5.8.1

> <Gold.Id.Protein>
6NUR|6NUR_protein|mol2

> <Gold.PLP.Fitness>
38.7181

> <Gold.PLP.PLP>
-36.6045

> <Gold.PLP.part.hbond>
-3.0149

> <Gold.PLP.part.metal>
0.0000

> <Gold.PLP.part.buried>
0.7823

> <Gold.PLP.part.nonpolar>
-33.2729

> <Gold.PLP.part.repulsive>
0.1517

> <Gold.PLP.ligand.clash>
0.0000

> <Gold.PLP.ligand.torsion>
0.4555

> <Gold.PLP.Chemscore.Hbond>
1.0000

> <Gold.PLP.Chemscore.CHOScore>
0.0000

> <Gold.PLP.Chemscore.Metal>
0.0000

> <Gold.Chemscore.Hbonds>
donor molecule, donor type, donor heavy atom, donor atom, acceptor molecule, acceptor atom, score
      P1  H  7997  8010       L1    12  1.00

> <Gold.PLP.Chemscore.Internal.Correction>
0.0246

> <Gold.Rescore>
     Score         DG    S(hbond)    S(metal)    S(lipo)     H(rot)  DE(clash)    DE(int)     intcor
     15.80     -17.38       0.99        0.00     104.89       1.44       0.07       1.51       ----

> <Gold.Chemscore.Fitness>
15.7989

> <Gold.Chemscore.DG>
-17.3753

> <Gold.Chemscore.ZeroCoef>
-5.4800

> <Gold.Chemscore.Hbond>
0.9903

> <Gold.Chemscore.Metal>
0.0000

> <Gold.Chemscore.Lipo>
104.8950

> <Gold.Chemscore.Internal_Hbond>
0.0000

> <Gold.Chemscore.DEClash>
0.0699

> <Gold.Chemscore.DEInternal>
1.5064

> <Gold.Chemscore.Rot>
1.4395

> <Gold.Chemscore.Internal.Correction>
   9.000000E+99

> <Gold.Chemscore.Hbonds>
donor molecule, donor type, donor heavy atom, donor atom, acceptor molecule, acceptor atom, score
      P1  H  7997  8010       L1    12  0.90

> <Gold.Chemscore.Hbond.Weighted>
-3.3078

> <Gold.Chemscore.Metal.Weighted>
-0.0000

> <Gold.Chemscore.Lipo.Weighted>
-12.2727

> <Gold.Chemscore.Internal_Hbond.Weighted>
0.0000

> <Gold.Chemscore.DEClash.Weighted>
0.0699

> <Gold.Chemscore.DEInternal.Weighted>
1.5064

> <Gold.Chemscore.Rot.Weighted>
3.6852

> <Gold.Chemscore.Internal.Correction.Weighted>
   9.000000E+99

> <Gold.Protein.RotatedTorsions>
[ 6907 6896 6895 6894 ] final  159.19 input  -60.11 | X-H torsion
[ 7974 7965 7964 7962 ] final   72.77 input  175.53 | X-H torsion
[ 8008 7997 7996 7995 ] final   81.18 input   59.86 | X-H torsion
[ 10167 10162 10161 10158 ] final   50.85 input  -65.29 | X-H torsion
[ 10718 10713 10712 10709 ] final  127.44 input   66.30 | X-H torsion
[ 10763 10752 10751 10750 ] final   -5.71 input  -60.55 | X-H torsion
[ 11005 11000 10999 10996 ] final   22.58 input  -57.11 | X-H torsion

> <Gold.Protein.ActiveResidues>
 VAL166  LYS551  ARG553  GLY616  TRP617  ASP618  TYR619  PRO620  LYS621  CYS622 
 ASP623  PHE694  ASN695  SER759  ASP760  ASP761  ALA762  ILE779  LEU786  VAL792 
 PHE793  MET794  SER795  GLU796  ALA797  LYS798  CYS799  TRP800  GLU811  SER814 

> <Gold.Protein.RotatedAtoms>
  151.9892  133.3785  159.4137 H   0  0  0  0  0  0  0  0  0  0  0  0  # atno 6907 bound_to 6896
  150.6924  134.3955  159.5105 H   0  0  0  0  0  0  0  0  0  0  0  0  # atno 6908 bound_to 6896
  152.1686  134.8853  160.0587 H   0  0  0  0  0  0  0  0  0  0  0  0  # atno 6909 bound_to 6896
  145.7493  139.2753  143.1441 H   0  0  0  0  0  0  0  0  0  0  0  0  # atno 7974 bound_to 7965
  155.8936  140.3437  155.5974 H   0  0  0  0  0  0  0  0  0  0  0  0  # atno 8008 bound_to 7997
  155.7582  140.0829  157.2187 H   0  0  0  0  0  0  0  0  0  0  0  0  # atno 8009 bound_to 7997
  154.4036  140.1541  156.2789 H   0  0  0  0  0  0  0  0  0  0  0  0  # atno 8010 bound_to 7997
  140.2681  144.3296  150.6298 H   0  0  0  0  0  0  0  0  0  0  0  0  # atno 10167 bound_to 10162
  157.5333  131.1098  150.8975 H   0  0  0  0  0  0  0  0  0  0  0  0  # atno 10718 bound_to 10713
  153.4023  135.7005  153.6417 H   0  0  0  0  0  0  0  0  0  0  0  0  # atno 10763 bound_to 10752
  153.4945  135.3665  155.2509 H   0  0  0  0  0  0  0  0  0  0  0  0  # atno 10764 bound_to 10752
  154.8711  135.4097  154.3360 H   0  0  0  0  0  0  0  0  0  0  0  0  # atno 10765 bound_to 10752
  140.3790  134.1941  155.7664 H   0  0  0  0  0  0  0  0  0  0  0  0  # atno 11005 bound_to 11000
  146.0373  140.8200  142.9846 LP  0  0  0  0  0  0  0  0  0  0  0  0  # atno 17320 bound_to 7965
  144.6853  140.2857  143.7285 LP  0  0  0  0  0  0  0  0  0  0  0  0  # atno 17321 bound_to 7965
  140.5912  143.2168  151.7250 LP  0  0  0  0  0  0  0  0  0  0  0  0  # atno 17342 bound_to 10162
  139.4997  144.3937  152.0254 LP  0  0  0  0  0  0  0  0  0  0  0  0  # atno 17343 bound_to 10162
  156.9550  130.5434  149.5284 LP  0  0  0  0  0  0  0  0  0  0  0  0  # atno 17370 bound_to 10713
  156.0439  130.5518  150.8835 LP  0  0  0  0  0  0  0  0  0  0  0  0  # atno 17371 bound_to 10713
  141.1930  133.8161  157.0818 LP  0  0  0  0  0  0  0  0  0  0  0  0  # atno 17394 bound_to 11000
  140.0493  134.9814  157.1107 LP  0  0  0  0  0  0  0  0  0  0  0  0  # atno 17395 bound_to 11000

$$$$
