AV-unprocessed.smi:1224|AV-procd|sdf|5133|dock9
  -GOLD-   22720 4193D 1   1.00000     0.00000
 Structure written by MMmdl.
 43 45  0  0  0  0  0  0  0  0  1 V2000
  152.8649  142.9848  161.8308 C   0  0  0  0  0  0  0  0  0  0  0  0
  152.4313  142.5992  160.4273 C   0  0  0  0  0  0  0  0  0  0  0  0
  152.8637  141.3664  159.8885 C   0  0  0  0  0  0  0  0  0  0  0  0
  152.4823  140.9709  158.5877 C   0  0  0  0  0  0  0  0  0  0  0  0
  152.7866  139.8263  157.8709 N   0  0  0  0  0  0  0  0  0  0  0  0
  152.1396  140.0447  156.7298 C   0  0  0  0  0  0  0  0  0  0  0  0
  151.4431  141.1932  156.6259 N   0  0  0  0  0  0  0  0  0  0  0  0
  150.6592  141.6443  155.4899 C   0  0  0  0  0  0  0  0  0  0  0  0
  149.1615  141.3072  155.6300 C   0  0  1  0  0  0  0  0  0  0  0  0
  148.5883  142.2773  156.4813 O   0  0  0  0  0  0  0  0  0  0  0  0
  148.3974  141.3231  154.2918 C   0  0  0  0  0  0  0  0  0  0  0  0
  147.5422  142.5012  154.1870 N   0  0  0  0  0  0  0  0  0  0  0  0
  146.1750  142.2570  154.6320 C   0  0  0  0  0  0  0  0  0  0  0  0
  145.3313  143.4842  154.5422 C   0  0  0  0  0  0  0  0  0  0  0  0
  144.9936  144.1911  153.4157 C   0  0  0  0  0  0  0  0  0  0  0  0
  144.1688  145.3216  153.6893 C   0  0  0  0  0  0  0  0  0  0  0  0
  143.8878  145.4630  155.0223 C   0  0  0  0  0  0  0  0  0  0  0  0
  144.6330  144.2053  155.9704 S   0  0  0  0  0  0  0  0  0  0  0  0
  151.6477  141.8482  157.8354 C   0  0  0  0  0  0  0  0  0  0  0  0
  151.2127  143.0781  158.3596 C   0  0  0  0  0  0  0  0  0  0  0  0
  151.6039  143.4584  159.6605 C   0  0  0  0  0  0  0  0  0  0  0  0
  151.1283  144.7884  160.2177 C   0  0  0  0  0  0  0  0  0  0  0  0
  153.4966  142.2167  162.2781 H   0  0  0  0  0  0  0  0  0  0  0  0
  151.9960  143.1196  162.4752 H   0  0  0  0  0  0  0  0  0  0  0  0
  153.4317  143.9160  161.8138 H   0  0  0  0  0  0  0  0  0  0  0  0
  153.4943  140.7117  160.4717 H   0  0  0  0  0  0  0  0  0  0  0  0
  152.1666  139.3244  155.9252 H   0  0  0  0  0  0  0  0  0  0  0  0
  150.7968  142.7222  155.3928 H   0  0  0  0  0  0  0  0  0  0  0  0
  151.0672  141.1942  154.5834 H   0  0  0  0  0  0  0  0  0  0  0  0
  149.0631  140.3298  156.1047 H   0  0  0  0  0  0  0  0  0  0  0  0
  148.9558  143.1198  156.2605 H   0  0  0  0  0  0  0  0  0  0  0  0
  149.0926  141.2702  153.4526 H   0  0  0  0  0  0  0  0  0  0  0  0
  147.7668  140.4371  154.2207 H   0  0  0  0  0  0  0  0  0  0  0  0
  147.9438  143.2526  154.7388 H   0  0  0  0  0  0  0  0  0  0  0  0
  145.7233  141.4690  154.0285 H   0  0  0  0  0  0  0  0  0  0  0  0
  146.1798  141.8913  155.6594 H   0  0  0  0  0  0  0  0  0  0  0  0
  145.3080  143.9371  152.4139 H   0  0  0  0  0  0  0  0  0  0  0  0
  143.8163  145.9814  152.9103 H   0  0  0  0  0  0  0  0  0  0  0  0
  143.2915  146.2245  155.5032 H   0  0  0  0  0  0  0  0  0  0  0  0
  150.5829  143.7229  157.7648 H   0  0  0  0  0  0  0  0  0  0  0  0
  150.5056  145.3210  159.4983 H   0  0  0  0  0  0  0  0  0  0  0  0
  151.9778  145.4268  160.4613 H   0  0  0  0  0  0  0  0  0  0  0  0
  150.5386  144.6354  161.1219 H   0  0  0  0  0  0  0  0  0  0  0  0
  1  2  1  0  0  0  0
  1 23  1  0  0  0  0
  1 24  1  0  0  0  0
  1 25  1  0  0  0  0
  2 21  1  0  0  0  0
  2  3  2  0  0  0  0
  3  4  1  0  0  0  0
  3 26  1  0  0  0  0
  4 19  2  0  0  0  0
  4  5  1  0  0  0  0
  5  6  2  0  0  0  0
  6  7  1  0  0  0  0
  6 27  1  0  0  0  0
  7  8  1  0  0  0  0
  7 19  1  0  0  0  0
  8  9  1  0  0  0  0
  8 28  1  0  0  0  0
  8 29  1  0  0  0  0
  9 10  1  0  0  0  0
  9 11  1  0  0  0  0
  9 30  1  0  0  0  0
 10 31  1  0  0  0  0
 11 12  1  0  0  0  0
 11 32  1  0  0  0  0
 11 33  1  0  0  0  0
 12 13  1  0  0  0  0
 12 34  1  0  0  0  0
 13 14  1  0  0  0  0
 13 35  1  0  0  0  0
 13 36  1  0  0  0  0
 14 18  1  0  0  0  0
 14 15  2  0  0  0  0
 15 16  1  0  0  0  0
 15 37  1  0  0  0  0
 16 17  2  0  0  0  0
 16 38  1  0  0  0  0
 17 18  1  0  0  0  0
 17 39  1  0  0  0  0
 19 20  1  0  0  0  0
 20 21  2  0  0  0  0
 20 40  1  0  0  0  0
 21 22  1  0  0  0  0
 22 41  1  0  0  0  0
 22 42  1  0  0  0  0
 22 43  1  0  0  0  0
M  END
> <s_m_source_file>
AV-unprocessed.smi

> <i_m_source_file_index>
1224

> <i_lp_mmshare_version>
43012

> <i_f3d_flags>
0

> <s_epik_input>
W0NIM11jKFtjSF0xKWMoW0NIM10pW2NIXWMoYzEyKW4oW2NIXW4yKVtDSDJdW0NASF0oW09IXSlbQ0gyXVtOSF1bQ0gyXWMzW2NIXVtjSF1bY0hdczM=

> <s_epik_cmdline>
J2VwaWtfcHl0aG9uJywgJy1waCcsICc3LjAnLCAnLXRuJywgJzgnLCAnLW1hJywgJzIwMCcsICctbWV0YWxfYmluZGluZycsICctaW1hZScsICc8aW5maWxlLm1hZT4nLCAnLW9tYWUnLCAnPG91dGZpbGUubWFlPic=

> <r_epik_Ionization_Penalty>
1.55566

> <r_epik_Ionization_Penalty_Charging>
0

> <r_epik_Ionization_Penalty_Neutral>
1.55566

> <r_epik_State_Penalty>
1.63945

> <r_epik_Charging_Adjusted_Penalty>
1.63945

> <i_epik_Tot_Q>
0

> <i_epik_Tot_abs_Q>
0

> <r_epik_Metal_State_Penalty>
1.52326

> <b_epik_Metal_Only>
0

> <s_lp_Force_Field>
OPLS_2005

> <r_lp_Energy>
15.3814

> <b_lp_Chiralities_Consistent>
1

> <s_lp_Variant>
AV-unprocessed.smi:1224-6

> <Gold.Version>
5.8.1

> <Gold.Id.Protein>
6NUR|6NUR_protein|mol2

> <Gold.PLP.Fitness>
56.4300

> <Gold.PLP.PLP>
-50.3155

> <Gold.PLP.part.hbond>
-3.0733

> <Gold.PLP.part.metal>
0.0000

> <Gold.PLP.part.buried>
-5.3004

> <Gold.PLP.part.nonpolar>
-41.3440

> <Gold.PLP.part.repulsive>
0.0000

> <Gold.PLP.ligand.clash>
0.0000

> <Gold.PLP.ligand.torsion>
1.4240

> <Gold.PLP.Chemscore.Hbond>
2.9672

> <Gold.PLP.Chemscore.CHOScore>
0.0000

> <Gold.PLP.Chemscore.Metal>
0.0000

> <Gold.Chemscore.Hbonds>
donor molecule, donor type, donor heavy atom, donor atom, acceptor molecule, acceptor atom, score
      L1  H    10    31       P1  8028  1.00
      L1  H    12    34       P1  8028  1.00
      P1  H  7997  8009       L1     5  0.70

> <Gold.PLP.Chemscore.Internal.Correction>
0.0610

> <Gold.Rescore>
     Score         DG    S(hbond)    S(metal)    S(lipo)     H(rot)  DE(clash)    DE(int)     intcor
     21.53     -23.03       1.97        0.00     144.40       2.32       0.01       1.49       ----

> <Gold.Chemscore.Fitness>
21.5335

> <Gold.Chemscore.DG>
-23.0336

> <Gold.Chemscore.ZeroCoef>
-5.4800

> <Gold.Chemscore.Hbond>
1.9735

> <Gold.Chemscore.Metal>
0.0000

> <Gold.Chemscore.Lipo>
144.3988

> <Gold.Chemscore.Internal_Hbond>
0.0000

> <Gold.Chemscore.DEClash>
0.0116

> <Gold.Chemscore.DEInternal>
1.4885

> <Gold.Chemscore.Rot>
2.3173

> <Gold.Chemscore.Internal.Correction>
   9.000000E+99

> <Gold.Chemscore.Hbonds>
donor molecule, donor type, donor heavy atom, donor atom, acceptor molecule, acceptor atom, score
      L1  H    10    31       P1  8028  0.97
      L1  H    12    34       P1  8028  0.82
      P1  H  7997  8009       L1     5  0.05

> <Gold.Chemscore.Hbond.Weighted>
-6.5913

> <Gold.Chemscore.Metal.Weighted>
-0.0000

> <Gold.Chemscore.Lipo.Weighted>
-16.8947

> <Gold.Chemscore.Internal_Hbond.Weighted>
0.0000

> <Gold.Chemscore.DEClash.Weighted>
0.0116

> <Gold.Chemscore.DEInternal.Weighted>
1.4885

> <Gold.Chemscore.Rot.Weighted>
5.9324

> <Gold.Chemscore.Internal.Correction.Weighted>
   9.000000E+99

> <Gold.Protein.RotatedTorsions>
[ 6907 6896 6895 6894 ] final  123.70 input  -60.11 | X-H torsion
[ 7974 7965 7964 7962 ] final -131.24 input  175.53 | X-H torsion
[ 8008 7997 7996 7995 ] final  151.30 input   59.86 | X-H torsion
[ 10167 10162 10161 10158 ] final  -21.90 input  -65.29 | X-H torsion
[ 10718 10713 10712 10709 ] final  170.47 input   66.30 | X-H torsion
[ 10763 10752 10751 10750 ] final  174.19 input  -60.55 | X-H torsion
[ 11005 11000 10999 10996 ] final   12.51 input  -57.11 | X-H torsion

> <Gold.Protein.ActiveResidues>
 VAL166  LYS551  ARG553  GLY616  TRP617  ASP618  TYR619  PRO620  LYS621  CYS622 
 ASP623  PHE694  ASN695  SER759  ASP760  ASP761  ALA762  ILE779  LEU786  VAL792 
 PHE793  MET794  SER795  GLU796  ALA797  LYS798  CYS799  TRP800  GLU811  SER814 

> <Gold.Protein.RotatedAtoms>
  152.4140  133.7008  159.6422 H   0  0  0  0  0  0  0  0  0  0  0  0  # atno 6907 bound_to 6896
  150.8018  133.8574  159.3231 H   0  0  0  0  0  0  0  0  0  0  0  0  # atno 6908 bound_to 6896
  151.6309  135.1025  160.0173 H   0  0  0  0  0  0  0  0  0  0  0  0  # atno 6909 bound_to 6896
  144.9398  140.7225  143.4854 H   0  0  0  0  0  0  0  0  0  0  0  0  # atno 7974 bound_to 7965
  156.2680  140.2051  156.6153 H   0  0  0  0  0  0  0  0  0  0  0  0  # atno 8008 bound_to 7997
  154.6799  140.0541  157.0279 H   0  0  0  0  0  0  0  0  0  0  0  0  # atno 8009 bound_to 7997
  155.1015  140.3206  155.4548 H   0  0  0  0  0  0  0  0  0  0  0  0  # atno 8010 bound_to 7997
  140.7284  143.4584  151.0414 H   0  0  0  0  0  0  0  0  0  0  0  0  # atno 10167 bound_to 10162
  157.0077  131.0195  151.2812 H   0  0  0  0  0  0  0  0  0  0  0  0  # atno 10718 bound_to 10713
  154.4505  135.2764  155.1784 H   0  0  0  0  0  0  0  0  0  0  0  0  # atno 10763 bound_to 10752
  154.3613  135.6129  153.5696 H   0  0  0  0  0  0  0  0  0  0  0  0  # atno 10764 bound_to 10752
  152.9847  135.5835  154.4848 H   0  0  0  0  0  0  0  0  0  0  0  0  # atno 10765 bound_to 10752
  140.4912  134.0839  155.7771 H   0  0  0  0  0  0  0  0  0  0  0  0  # atno 11005 bound_to 11000
  145.3009  139.1851  143.4690 LP  0  0  0  0  0  0  0  0  0  0  0  0  # atno 17320 bound_to 7965
  146.3281  140.3000  142.8620 LP  0  0  0  0  0  0  0  0  0  0  0  0  # atno 17321 bound_to 7965
  139.8267  143.7746  152.3179 LP  0  0  0  0  0  0  0  0  0  0  0  0  # atno 17342 bound_to 10162
  139.7848  144.7432  151.0038 LP  0  0  0  0  0  0  0  0  0  0  0  0  # atno 17343 bound_to 10162
  157.5344  130.8079  149.7954 LP  0  0  0  0  0  0  0  0  0  0  0  0  # atno 17370 bound_to 10713
  156.0147  130.3818  150.2148 LP  0  0  0  0  0  0  0  0  0  0  0  0  # atno 17371 bound_to 10713
  141.1483  133.9015  157.2161 LP  0  0  0  0  0  0  0  0  0  0  0  0  # atno 17394 bound_to 11000
  139.9768  135.0111  156.9651 LP  0  0  0  0  0  0  0  0  0  0  0  0  # atno 17395 bound_to 11000

$$$$
