AV-unprocessed.smi:2273|AV-procd|sdf|9165|dock10
  -GOLD-   2272012373D 1   1.00000     0.00000
 Structure written by MMmdl.
 53 54  0  0  0  0  0  0  0  0  1 V2000
  142.8253  139.0102  156.2270 C   0  0  0  0  0  0  0  0  0  0  0  0
  144.1269  139.2373  155.4430 C   0  0  0  0  0  0  0  0  0  0  0  0
  144.8898  140.5303  155.8275 C   0  0  0  0  0  0  0  0  0  0  0  0
  143.9954  141.7839  155.6576 C   0  0  0  0  0  0  0  0  0  0  0  0
  144.7096  143.1187  155.9201 C   0  0  0  0  0  0  0  0  0  0  0  0
  146.2228  140.6784  155.0474 C   0  0  1  0  0  0  0  0  0  0  0  0
  147.3150  141.4731  155.7943 C   0  0  0  0  0  0  0  0  0  0  0  0
  148.5833  141.5840  154.9295 C   0  0  1  0  0  0  0  0  0  0  0  0
  149.6708  142.2290  155.6680 N   0  0  0  0  0  0  0  0  0  0  0  0
  150.2514  141.8289  156.8140 C   0  0  0  0  0  0  0  0  0  0  0  0
  149.8752  140.8173  157.4043 O   0  0  0  0  0  0  0  0  0  0  0  0
  151.2353  142.6402  157.2524 N   0  0  0  0  0  0  0  0  0  0  0  0
  151.9659  142.4951  158.4414 C   0  0  0  0  0  0  0  0  0  0  0  0
  152.0234  143.5396  159.3091 C   0  0  0  0  0  0  0  0  0  0  0  0
  151.2865  144.8429  159.0439 C   0  0  0  0  0  0  0  0  0  0  0  0
  152.7891  143.3987  160.5301 C   0  0  0  0  0  0  0  0  0  0  0  0
  153.4318  142.2493  160.7760 C   0  0  0  0  0  0  0  0  0  0  0  0
  153.3972  141.1780  159.8720 N   0  0  0  0  0  0  0  0  0  0  0  0
  154.1487  139.9702  160.2230 C   0  0  0  0  0  0  0  0  0  0  0  0
  152.7252  141.2452  158.6869 C   0  0  0  0  0  0  0  0  0  0  0  0
  152.7784  140.3164  157.8775 O   0  0  0  0  0  0  0  0  0  0  0  0
  149.0134  140.1753  154.4945 C   0  0  0  0  0  0  0  0  0  0  0  0
  147.8449  139.4317  153.8274 C   0  0  0  0  0  0  0  0  0  0  0  0
  146.7234  139.3877  154.7041 O   0  0  0  0  0  0  0  0  0  0  0  0
  142.3993  138.0362  155.9855 H   0  0  0  0  0  0  0  0  0  0  0  0
  142.0677  139.7570  155.9935 H   0  0  0  0  0  0  0  0  0  0  0  0
  143.0036  139.0342  157.3023 H   0  0  0  0  0  0  0  0  0  0  0  0
  144.7531  138.3655  155.6203 H   0  0  0  0  0  0  0  0  0  0  0  0
  143.9143  139.2348  154.3733 H   0  0  0  0  0  0  0  0  0  0  0  0
  145.1433  140.4538  156.8858 H   0  0  0  0  0  0  0  0  0  0  0  0
  143.5535  141.7944  154.6606 H   0  0  0  0  0  0  0  0  0  0  0  0
  143.1565  141.7370  156.3498 H   0  0  0  0  0  0  0  0  0  0  0  0
  143.9988  143.9447  155.8861 H   0  0  0  0  0  0  0  0  0  0  0  0
  145.4787  143.3282  155.1777 H   0  0  0  0  0  0  0  0  0  0  0  0
  145.1776  143.1282  156.9046 H   0  0  0  0  0  0  0  0  0  0  0  0
  146.0206  141.2208  154.1244 H   0  0  0  0  0  0  0  0  0  0  0  0
  146.9387  142.4631  156.0496 H   0  0  0  0  0  0  0  0  0  0  0  0
  147.5734  140.9878  156.7345 H   0  0  0  0  0  0  0  0  0  0  0  0
  148.3601  142.1591  154.0290 H   0  0  0  0  0  0  0  0  0  0  0  0
  150.0199  143.0879  155.2676 H   0  0  0  0  0  0  0  0  0  0  0  0
  151.3773  143.5046  156.7512 H   0  0  0  0  0  0  0  0  0  0  0  0
  151.4296  145.5511  159.8603 H   0  0  0  0  0  0  0  0  0  0  0  0
  150.2160  144.6637  158.9404 H   0  0  0  0  0  0  0  0  0  0  0  0
  151.6519  145.3088  158.1282 H   0  0  0  0  0  0  0  0  0  0  0  0
  152.8391  144.2076  161.2443 H   0  0  0  0  0  0  0  0  0  0  0  0
  154.0157  142.0848  161.6699 H   0  0  0  0  0  0  0  0  0  0  0  0
  153.5111  139.0867  160.1641 H   0  0  0  0  0  0  0  0  0  0  0  0
  154.5536  140.0061  161.2351 H   0  0  0  0  0  0  0  0  0  0  0  0
  154.9865  139.8316  159.5382 H   0  0  0  0  0  0  0  0  0  0  0  0
  149.8591  140.2318  153.8081 H   0  0  0  0  0  0  0  0  0  0  0  0
  149.3515  139.6054  155.3613 H   0  0  0  0  0  0  0  0  0  0  0  0
  147.5652  139.9111  152.8881 H   0  0  0  0  0  0  0  0  0  0  0  0
  148.1408  138.4109  153.5853 H   0  0  0  0  0  0  0  0  0  0  0  0
  1  2  1  0  0  0  0
  1 25  1  0  0  0  0
  1 26  1  0  0  0  0
  1 27  1  0  0  0  0
  2  3  1  0  0  0  0
  2 28  1  0  0  0  0
  2 29  1  0  0  0  0
  3  4  1  0  0  0  0
  3  6  1  0  0  0  0
  3 30  1  0  0  0  0
  4  5  1  0  0  0  0
  4 31  1  0  0  0  0
  4 32  1  0  0  0  0
  5 33  1  0  0  0  0
  5 34  1  0  0  0  0
  5 35  1  0  0  0  0
  6 24  1  0  0  0  0
  6  7  1  0  0  0  0
  6 36  1  0  0  0  0
  7  8  1  0  0  0  0
  7 37  1  0  0  0  0
  7 38  1  0  0  0  0
  8  9  1  0  0  0  0
  8 22  1  0  0  0  0
  8 39  1  0  0  0  0
  9 10  1  0  0  0  0
  9 40  1  0  0  0  0
 10 11  2  0  0  0  0
 10 12  1  0  0  0  0
 12 13  1  0  0  0  0
 12 41  1  0  0  0  0
 13 20  1  0  0  0  0
 13 14  2  0  0  0  0
 14 15  1  0  0  0  0
 14 16  1  0  0  0  0
 15 42  1  0  0  0  0
 15 43  1  0  0  0  0
 15 44  1  0  0  0  0
 16 17  2  0  0  0  0
 16 45  1  0  0  0  0
 17 18  1  0  0  0  0
 17 46  1  0  0  0  0
 18 19  1  0  0  0  0
 18 20  1  0  0  0  0
 19 47  1  0  0  0  0
 19 48  1  0  0  0  0
 19 49  1  0  0  0  0
 20 21  2  0  0  0  0
 22 23  1  0  0  0  0
 22 50  1  0  0  0  0
 22 51  1  0  0  0  0
 23 24  1  0  0  0  0
 23 52  1  0  0  0  0
 23 53  1  0  0  0  0
M  END
> <s_m_source_file>
AV-unprocessed.smi

> <i_m_source_file_index>
2273

> <i_lp_mmshare_version>
43012

> <i_f3d_flags>
0

> <s_epik_input>
W0NIM11bQ0gyXVtDSF0oW0NIMl1bQ0gzXSlbQ0BASF0xW0NIMl1bQ0BIXShbQ0gyXVtDSDJdTzEpW05IXUMoPU8pW05IXWMyYyhbQ0gzXSlbY0hdW2NIXW4oW0NIM10pYzI9Tw==

> <s_epik_cmdline>
J2VwaWtfcHl0aG9uJywgJy1waCcsICc3LjAnLCAnLXRuJywgJzgnLCAnLW1hJywgJzIwMCcsICctbWV0YWxfYmluZGluZycsICctaW1hZScsICc8aW5maWxlLm1hZT4nLCAnLW9tYWUnLCAnPG91dGZpbGUubWFlPic=

> <r_lp_tautomer_probability>
1

> <r_epik_Ionization_Penalty>
2.66245e-05

> <r_epik_Ionization_Penalty_Charging>
6.91055e-06

> <r_epik_Ionization_Penalty_Neutral>
1.97139e-05

> <r_epik_State_Penalty>
-0

> <r_epik_Charging_Adjusted_Penalty>
6.91055e-06

> <i_epik_Tot_Q>
0

> <i_epik_Tot_abs_Q>
0

> <r_epik_Metal_State_Penalty>
-0

> <b_epik_Metal_Only>
0

> <s_lp_Force_Field>
OPLS_2005

> <r_lp_Energy>
39.8716

> <b_lp_Chiralities_Consistent>
1

> <s_lp_Variant>
AV-unprocessed.smi:2273-2

> <Gold.Version>
5.8.1

> <Gold.Id.Protein>
6NUR|6NUR_protein|mol2

> <Gold.PLP.Fitness>
41.5314

> <Gold.PLP.PLP>
-39.5455

> <Gold.PLP.part.hbond>
-2.0000

> <Gold.PLP.part.metal>
0.0000

> <Gold.PLP.part.buried>
-3.9486

> <Gold.PLP.part.nonpolar>
-33.6179

> <Gold.PLP.part.repulsive>
0.3121

> <Gold.PLP.ligand.clash>
0.0000

> <Gold.PLP.ligand.torsion>
1.2003

> <Gold.PLP.Chemscore.Hbond>
1.2295

> <Gold.PLP.Chemscore.CHOScore>
0.0000

> <Gold.PLP.Chemscore.Metal>
0.0000

> <Gold.Chemscore.Hbonds>
donor molecule, donor type, donor heavy atom, donor atom, acceptor molecule, acceptor atom, score
      L1  H     9    40       P1  8028  0.30
      P1  H  7997  8008       L1    21  0.93

> <Gold.PLP.Chemscore.Internal.Correction>
0.6980

> <Gold.Rescore>
     Score         DG    S(hbond)    S(metal)    S(lipo)     H(rot)  DE(clash)    DE(int)     intcor
     14.96     -16.86       1.21        0.00      94.04       1.42       0.03       1.88       ----

> <Gold.Chemscore.Fitness>
14.9588

> <Gold.Chemscore.DG>
-16.8649

> <Gold.Chemscore.ZeroCoef>
-5.4800

> <Gold.Chemscore.Hbond>
1.2055

> <Gold.Chemscore.Metal>
0.0000

> <Gold.Chemscore.Lipo>
94.0442

> <Gold.Chemscore.Internal_Hbond>
0.0000

> <Gold.Chemscore.DEClash>
0.0267

> <Gold.Chemscore.DEInternal>
1.8794

> <Gold.Chemscore.Rot>
1.4236

> <Gold.Chemscore.Internal.Correction>
   9.000000E+99

> <Gold.Chemscore.Hbonds>
donor molecule, donor type, donor heavy atom, donor atom, acceptor molecule, acceptor atom, score
      L1  H     9    40       P1  8028  0.28
      P1  H  7997  8008       L1    21  0.84

> <Gold.Chemscore.Hbond.Weighted>
-4.0262

> <Gold.Chemscore.Metal.Weighted>
-0.0000

> <Gold.Chemscore.Lipo.Weighted>
-11.0032

> <Gold.Chemscore.Internal_Hbond.Weighted>
0.0000

> <Gold.Chemscore.DEClash.Weighted>
0.0267

> <Gold.Chemscore.DEInternal.Weighted>
1.8794

> <Gold.Chemscore.Rot.Weighted>
3.6445

> <Gold.Chemscore.Internal.Correction.Weighted>
   9.000000E+99

> <Gold.Protein.RotatedTorsions>
[ 6907 6896 6895 6894 ] final  -78.52 input  -60.11 | X-H torsion
[ 7974 7965 7964 7962 ] final  142.75 input  175.53 | X-H torsion
[ 8008 7997 7996 7995 ] final  -74.91 input   59.86 | X-H torsion
[ 10167 10162 10161 10158 ] final  -31.47 input  -65.29 | X-H torsion
[ 10718 10713 10712 10709 ] final    6.40 input   66.30 | X-H torsion
[ 10763 10752 10751 10750 ] final   25.00 input  -60.55 | X-H torsion
[ 11005 11000 10999 10996 ] final  150.56 input  -57.11 | X-H torsion

> <Gold.Protein.ActiveResidues>
 VAL166  LYS551  ARG553  GLY616  TRP617  ASP618  TYR619  PRO620  LYS621  CYS622 
 ASP623  PHE694  ASN695  SER759  ASP760  ASP761  ALA762  ILE779  LEU786  VAL792 
 PHE793  MET794  SER795  GLU796  ALA797  LYS798  CYS799  TRP800  GLU811  SER814 

> <Gold.Protein.RotatedAtoms>
  150.6971  134.4260  159.5226 H   0  0  0  0  0  0  0  0  0  0  0  0  # atno 6907 bound_to 6896
  152.1995  134.8598  160.0518 H   0  0  0  0  0  0  0  0  0  0  0  0  # atno 6908 bound_to 6896
  151.9523  133.3635  159.4041 H   0  0  0  0  0  0  0  0  0  0  0  0  # atno 6909 bound_to 6896
  144.8980  139.5462  143.5767 H   0  0  0  0  0  0  0  0  0  0  0  0  # atno 7974 bound_to 7965
  154.5371  140.0753  156.8447 H   0  0  0  0  0  0  0  0  0  0  0  0  # atno 8008 bound_to 7997
  155.3255  140.3398  155.4222 H   0  0  0  0  0  0  0  0  0  0  0  0  # atno 8009 bound_to 7997
  156.1839  140.1662  156.8209 H   0  0  0  0  0  0  0  0  0  0  0  0  # atno 8010 bound_to 7997
  140.7236  143.3769  151.1674 H   0  0  0  0  0  0  0  0  0  0  0  0  # atno 10167 bound_to 10162
  156.9216  130.5793  149.5648 H   0  0  0  0  0  0  0  0  0  0  0  0  # atno 10718 bound_to 10713
  153.0723  135.6593  154.0221 H   0  0  0  0  0  0  0  0  0  0  0  0  # atno 10763 bound_to 10752
  153.9863  135.2950  155.3417 H   0  0  0  0  0  0  0  0  0  0  0  0  # atno 10764 bound_to 10752
  154.7101  135.5209  153.8723 H   0  0  0  0  0  0  0  0  0  0  0  0  # atno 10765 bound_to 10752
  140.1142  134.8905  157.1980 H   0  0  0  0  0  0  0  0  0  0  0  0  # atno 11005 bound_to 11000
  146.3092  139.7688  142.9032 LP  0  0  0  0  0  0  0  0  0  0  0  0  # atno 17320 bound_to 7965
  145.3665  141.0335  143.3255 LP  0  0  0  0  0  0  0  0  0  0  0  0  # atno 17321 bound_to 7965
  139.7350  143.9013  152.3032 LP  0  0  0  0  0  0  0  0  0  0  0  0  # atno 17342 bound_to 10162
  139.8815  144.7015  150.8873 LP  0  0  0  0  0  0  0  0  0  0  0  0  # atno 17343 bound_to 10162
  156.0488  130.5561  150.8943 LP  0  0  0  0  0  0  0  0  0  0  0  0  # atno 17370 bound_to 10713
  157.5904  131.0944  150.9128 LP  0  0  0  0  0  0  0  0  0  0  0  0  # atno 17371 bound_to 10713
  140.3051  134.3088  155.7280 LP  0  0  0  0  0  0  0  0  0  0  0  0  # atno 17394 bound_to 11000
  141.2137  133.7615  156.9696 LP  0  0  0  0  0  0  0  0  0  0  0  0  # atno 17395 bound_to 11000

$$$$
