AV-unprocessed.smi:1830|AV-procd|sdf|7450|dock6
  -GOLD-   22720 9143D 1   1.00000     0.00000
 Structure written by MMmdl.
 54 57  0  0  0  0  0  0  0  0  3 V2000
  151.9570  137.8650  156.2592 O   0  0  0  0  0  0  0  0  0  0  0  0
  150.7760  138.0336  155.9570 C   0  0  0  0  0  0  0  0  0  0  0  0
  150.0293  137.1030  155.3468 N   0  0  0  0  0  0  0  0  0  0  0  0
  150.5029  135.7794  154.9552 C   0  0  0  0  0  0  0  0  0  0  0  0
  149.6401  134.6521  155.5660 C   0  0  2  0  0  0  0  0  0  0  0  0
  149.3490  133.5060  154.5667 C   0  0  0  0  0  0  0  0  0  0  0  0
  148.3267  133.9527  153.6026 N   0  3  1  0  0  0  0  0  0  0  0  0
  147.9010  133.0091  152.5546 C   0  0  0  0  0  0  0  0  0  0  0  0
  146.4929  133.4836  152.1434 C   0  0  0  0  0  0  0  0  0  0  0  0
  146.1223  134.6013  153.1347 C   0  0  0  0  0  0  0  0  0  0  0  0
  147.1042  134.3860  154.2823 C   0  0  2  0  0  0  0  0  0  0  0  0
  147.4291  135.5811  155.1857 C   0  0  0  0  0  0  0  0  0  0  0  0
  148.4215  135.1649  156.1280 O   0  0  0  0  0  0  0  0  0  0  0  0
  150.0760  139.1600  156.1721 N   0  0  0  0  0  0  0  0  0  0  0  0
  150.5351  140.3769  156.7518 C   0  0  0  0  0  0  0  0  0  0  0  0
  151.5519  140.3818  157.7413 C   0  0  0  0  0  0  0  0  0  0  0  0
  152.0033  141.6011  158.2798 C   0  0  0  0  0  0  0  0  0  0  0  0
  151.4279  142.7997  157.8246 C   0  0  0  0  0  0  0  0  0  0  0  0
  150.4480  142.7614  156.8983 N   0  3  0  0  0  0  0  0  0  0  0  0
  149.9600  141.6189  156.3533 C   0  0  0  0  0  0  0  0  0  0  0  0
  148.9203  141.7332  155.4026 N   0  0  0  0  0  0  0  0  0  0  0  0
  147.5255  141.6472  155.8194 C   0  0  0  0  0  0  0  0  0  0  0  0
  146.7379  141.4650  154.5254 C   0  0  0  0  0  0  0  0  0  0  0  0
  147.6828  140.6123  153.6836 C   0  0  0  0  0  0  0  0  0  0  0  0
  149.0777  141.0909  154.1014 C   0  0  0  0  0  0  0  0  0  0  0  0
  149.0677  137.3247  155.1338 H   0  0  0  0  0  0  0  0  0  0  0  0
  150.5063  135.7261  153.8670 H   0  0  0  0  0  0  0  0  0  0  0  0
  151.5438  135.6609  155.2615 H   0  0  0  0  0  0  0  0  0  0  0  0
  150.2021  134.2196  156.3943 H   0  0  0  0  0  0  0  0  0  0  0  0
  150.2563  133.2049  154.0418 H   0  0  0  0  0  0  0  0  0  0  0  0
  148.9829  132.6281  155.1016 H   0  0  0  0  0  0  0  0  0  0  0  0
  148.6038  133.0075  151.7211 H   0  0  0  0  0  0  0  0  0  0  0  0
  147.8521  131.9975  152.9607 H   0  0  0  0  0  0  0  0  0  0  0  0
  146.4750  133.8519  151.1173 H   0  0  0  0  0  0  0  0  0  0  0  0
  145.7846  132.6569  152.2076 H   0  0  0  0  0  0  0  0  0  0  0  0
  146.2893  135.5757  152.6730 H   0  0  0  0  0  0  0  0  0  0  0  0
  145.0813  134.5553  153.4561 H   0  0  0  0  0  0  0  0  0  0  0  0
  146.7362  133.5631  154.8992 H   0  0  0  0  0  0  0  0  0  0  0  0
  147.7749  136.4386  154.6080 H   0  0  0  0  0  0  0  0  0  0  0  0
  146.5391  135.9005  155.7278 H   0  0  0  0  0  0  0  0  0  0  0  0
  149.1464  139.1875  155.7799 H   0  0  0  0  0  0  0  0  0  0  0  0
  151.9916  139.4639  158.1010 H   0  0  0  0  0  0  0  0  0  0  0  0
  152.7809  141.6152  159.0297 H   0  0  0  0  0  0  0  0  0  0  0  0
  151.7126  143.7807  158.1766 H   0  0  0  0  0  0  0  0  0  0  0  0
  147.3720  140.7818  156.4656 H   0  0  0  0  0  0  0  0  0  0  0  0
  147.2145  142.5418  156.3598 H   0  0  0  0  0  0  0  0  0  0  0  0
  145.7638  141.0001  154.6817 H   0  0  0  0  0  0  0  0  0  0  0  0
  146.5804  142.4315  154.0446 H   0  0  0  0  0  0  0  0  0  0  0  0
  147.5603  139.5613  153.9488 H   0  0  0  0  0  0  0  0  0  0  0  0
  147.5047  140.7101  152.6123 H   0  0  0  0  0  0  0  0  0  0  0  0
  149.4463  141.8280  153.3875 H   0  0  0  0  0  0  0  0  0  0  0  0
  149.7871  140.2627  154.1348 H   0  0  0  0  0  0  0  0  0  0  0  0
  148.6930  134.7636  153.1247 H   0  0  0  0  0  0  0  0  0  0  0  0
  150.0435  143.6477  156.5960 H   0  0  0  0  0  0  0  0  0  0  0  0
  1  2  2  0  0  0  0
  2  3  1  0  0  0  0
  2 14  1  0  0  0  0
  3  4  1  0  0  0  0
  3 26  1  0  0  0  0
  4  5  1  0  0  0  0
  4 27  1  0  0  0  0
  4 28  1  0  0  0  0
  5 13  1  0  0  0  0
  5  6  1  0  0  0  0
  5 29  1  0  0  0  0
  6  7  1  0  0  0  0
  6 30  1  0  0  0  0
  6 31  1  0  0  0  0
  7 11  1  0  0  0  0
  7  8  1  0  0  0  0
  7 53  1  0  0  0  0
  8  9  1  0  0  0  0
  8 32  1  0  0  0  0
  8 33  1  0  0  0  0
  9 10  1  0  0  0  0
  9 34  1  0  0  0  0
  9 35  1  0  0  0  0
 10 11  1  0  0  0  0
 10 36  1  0  0  0  0
 10 37  1  0  0  0  0
 11 12  1  0  0  0  0
 11 38  1  0  0  0  0
 12 13  1  0  0  0  0
 12 39  1  0  0  0  0
 12 40  1  0  0  0  0
 14 15  1  0  0  0  0
 14 41  1  0  0  0  0
 15 20  1  0  0  0  0
 15 16  2  0  0  0  0
 16 17  1  0  0  0  0
 16 42  1  0  0  0  0
 17 18  2  0  0  0  0
 17 43  1  0  0  0  0
 18 19  1  0  0  0  0
 18 44  1  0  0  0  0
 19 20  2  0  0  0  0
 19 54  1  0  0  0  0
 20 21  1  0  0  0  0
 21 25  1  0  0  0  0
 21 22  1  0  0  0  0
 22 23  1  0  0  0  0
 22 45  1  0  0  0  0
 22 46  1  0  0  0  0
 23 24  1  0  0  0  0
 23 47  1  0  0  0  0
 23 48  1  0  0  0  0
 24 25  1  0  0  0  0
 24 49  1  0  0  0  0
 24 50  1  0  0  0  0
 25 51  1  0  0  0  0
 25 52  1  0  0  0  0
M  CHG  1   7   1
M  CHG  1  19   1
M  END
> <s_m_source_file>
AV-unprocessed.smi

> <i_m_source_file_index>
1830

> <i_lp_mmshare_version>
43012

> <i_f3d_flags>
0

> <s_epik_input>
W0NIMl0xW0NIMl1bQ0gyXVtDQEhdKE4xMilbQ0gyXU9bQ0BASF0oW0NIMl0yKVtDSDJdW05IXUMoPU8pW05IXWMzW2NIXVtjSF1bY0hdbmMzTjRbQ0gyXVtDSDJdW0NIMl1bQ0gyXTQ=

> <s_epik_cmdline>
J2VwaWtfcHl0aG9uJywgJy1waCcsICc3LjAnLCAnLXRuJywgJzgnLCAnLW1hJywgJzIwMCcsICctbWV0YWxfYmluZGluZycsICctaW1hZScsICc8aW5maWxlLm1hZT4nLCAnLW9tYWUnLCAnPG91dGZpbGUubWFlPic=

> <r_lp_tautomer_probability>
0.999994

> <r_epik_Ionization_Penalty>
1.29113

> <r_epik_Ionization_Penalty_Charging>
1.29111

> <r_epik_Ionization_Penalty_Neutral>
1.88144e-05

> <r_epik_State_Penalty>
1.32676

> <r_epik_Charging_Adjusted_Penalty>
2.61787

> <i_epik_Tot_Q>
2

> <i_epik_Tot_abs_Q>
2

> <r_epik_Metal_State_Penalty>
1.40425

> <b_epik_Metal_Only>
0

> <s_lp_Force_Field>
OPLS_2005

> <r_lp_Energy>
76.6475

> <b_lp_Chiralities_Consistent>
1

> <s_lp_Variant>
AV-unprocessed.smi:1830-19

> <Gold.Version>
5.8.1

> <Gold.Id.Protein>
6NUR|6NUR_protein|mol2

> <Gold.PLP.Fitness>
43.7423

> <Gold.PLP.PLP>
-33.8624

> <Gold.PLP.part.hbond>
-2.0000

> <Gold.PLP.part.metal>
0.0000

> <Gold.PLP.part.buried>
-4.8757

> <Gold.PLP.part.nonpolar>
-28.4926

> <Gold.PLP.part.repulsive>
1.0110

> <Gold.PLP.ligand.clash>
0.0000

> <Gold.PLP.ligand.torsion>
1.2587

> <Gold.PLP.Chemscore.Hbond>
4.0000

> <Gold.PLP.Chemscore.CHOScore>
0.0000

> <Gold.PLP.Chemscore.Metal>
0.0000

> <Gold.Chemscore.Hbonds>
donor molecule, donor type, donor heavy atom, donor atom, acceptor molecule, acceptor atom, score
      L1  H     7    53       P1  7948  2.00
      L1  H    19    54       P1  8028  2.00

> <Gold.PLP.Chemscore.Internal.Correction>
0.3974

> <Gold.Rescore>
     Score         DG    S(hbond)    S(metal)    S(lipo)     H(rot)  DE(clash)    DE(int)     intcor
     14.14     -17.81       1.83        0.00      84.37       1.43       0.10       3.58       ----

> <Gold.Chemscore.Fitness>
14.1362

> <Gold.Chemscore.DG>
-17.8087

> <Gold.Chemscore.ZeroCoef>
-5.4800

> <Gold.Chemscore.Hbond>
1.8301

> <Gold.Chemscore.Metal>
0.0000

> <Gold.Chemscore.Lipo>
84.3686

> <Gold.Chemscore.Internal_Hbond>
0.0000

> <Gold.Chemscore.DEClash>
0.0974

> <Gold.Chemscore.DEInternal>
3.5751

> <Gold.Chemscore.Rot>
1.4278

> <Gold.Chemscore.Internal.Correction>
   9.000000E+99

> <Gold.Chemscore.Hbonds>
donor molecule, donor type, donor heavy atom, donor atom, acceptor molecule, acceptor atom, score
      L1  H     7    53       P1  7948  0.30
      L1  H    19    54       P1  8028  0.99

> <Gold.Chemscore.Hbond.Weighted>
-6.1126

> <Gold.Chemscore.Metal.Weighted>
-0.0000

> <Gold.Chemscore.Lipo.Weighted>
-9.8711

> <Gold.Chemscore.Internal_Hbond.Weighted>
0.0000

> <Gold.Chemscore.DEClash.Weighted>
0.0974

> <Gold.Chemscore.DEInternal.Weighted>
3.5751

> <Gold.Chemscore.Rot.Weighted>
3.6551

> <Gold.Chemscore.Internal.Correction.Weighted>
   9.000000E+99

> <Gold.Protein.RotatedTorsions>
[ 6907 6896 6895 6894 ] final -119.66 input  -60.11 | X-H torsion
[ 7974 7965 7964 7962 ] final -123.13 input  175.53 | X-H torsion
[ 8008 7997 7996 7995 ] final  139.54 input   59.86 | X-H torsion
[ 10167 10162 10161 10158 ] final  -69.58 input  -65.29 | X-H torsion
[ 10718 10713 10712 10709 ] final  178.39 input   66.30 | X-H torsion
[ 10763 10752 10751 10750 ] final -166.02 input  -60.55 | X-H torsion
[ 11005 11000 10999 10996 ] final -112.67 input  -57.11 | X-H torsion

> <Gold.Protein.ActiveResidues>
 VAL166  LYS551  ARG553  GLY616  TRP617  ASP618  TYR619  PRO620  LYS621  CYS622 
 ASP623  PHE694  ASN695  SER759  ASP760  ASP761  ALA762  ILE779  LEU786  VAL792 
 PHE793  MET794  SER795  GLU796  ALA797  LYS798  CYS799  TRP800  GLU811  SER814 

> <Gold.Protein.RotatedAtoms>
  150.8325  133.8068  159.3092 H   0  0  0  0  0  0  0  0  0  0  0  0  # atno 6907 bound_to 6896
  151.5793  135.1057  160.0023 H   0  0  0  0  0  0  0  0  0  0  0  0  # atno 6908 bound_to 6896
  152.4402  133.7393  159.6688 H   0  0  0  0  0  0  0  0  0  0  0  0  # atno 6909 bound_to 6896
  145.0220  140.7996  143.4375 H   0  0  0  0  0  0  0  0  0  0  0  0  # atno 7974 bound_to 7965
  156.2988  140.2365  156.4255 H   0  0  0  0  0  0  0  0  0  0  0  0  # atno 8008 bound_to 7997
  154.8317  140.0432  157.1502 H   0  0  0  0  0  0  0  0  0  0  0  0  # atno 8009 bound_to 7997
  154.9200  140.3002  155.5225 H   0  0  0  0  0  0  0  0  0  0  0  0  # atno 8010 bound_to 7997
  140.5419  143.2314  151.7073 H   0  0  0  0  0  0  0  0  0  0  0  0  # atno 10167 bound_to 10162
  156.8913  130.9848  151.3049 H   0  0  0  0  0  0  0  0  0  0  0  0  # atno 10718 bound_to 10713
  154.6874  135.2965  154.9527 H   0  0  0  0  0  0  0  0  0  0  0  0  # atno 10763 bound_to 10752
  154.0502  135.6645  153.4803 H   0  0  0  0  0  0  0  0  0  0  0  0  # atno 10764 bound_to 10752
  153.0588  135.5128  154.7949 H   0  0  0  0  0  0  0  0  0  0  0  0  # atno 10765 bound_to 10752
  141.0661  133.9456  157.2575 H   0  0  0  0  0  0  0  0  0  0  0  0  # atno 11005 bound_to 11000
  145.1883  139.2315  143.5256 LP  0  0  0  0  0  0  0  0  0  0  0  0  # atno 17320 bound_to 7965
  146.3487  140.1673  142.8590 LP  0  0  0  0  0  0  0  0  0  0  0  0  # atno 17321 bound_to 7965
  139.4992  144.3955  152.0236 LP  0  0  0  0  0  0  0  0  0  0  0  0  # atno 17342 bound_to 10162
  140.3065  144.3587  150.6045 LP  0  0  0  0  0  0  0  0  0  0  0  0  # atno 17343 bound_to 10162
  157.6082  130.8563  149.8909 LP  0  0  0  0  0  0  0  0  0  0  0  0  # atno 17370 bound_to 10713
  156.0628  130.3697  150.0945 LP  0  0  0  0  0  0  0  0  0  0  0  0  # atno 17371 bound_to 10713
  139.9478  135.0181  156.8904 LP  0  0  0  0  0  0  0  0  0  0  0  0  # atno 17394 bound_to 11000
  140.5770  134.0389  155.7450 LP  0  0  0  0  0  0  0  0  0  0  0  0  # atno 17395 bound_to 11000

$$$$
