#       Name:                AV-unprocessed.smi:2040
#       Creating user name   scv26
#       Creation time:       Fri Mar 27 10:55:41 2020


#       File generated by GOLD software.
#

@<TRIPOS>MOLECULE
AV-unprocessed.smi:2040
    43    44     1
SMALL
NO_CHARGES


@<TRIPOS>ATOM
      1 ****        -6.1062  -0.2784   1.4530 C.3            1 S1                 0.0000
      2 ****        -4.7486   0.3173   1.2231 C.2            1 S1                 0.0000
      3 ****        -3.5223  -0.3645   0.9728 C.2            1 S1                 0.0000
      4 ****        -2.6275   0.6626   0.8444 C.2            1 S1                 0.0000
      5 ****        -1.2932   0.6071   0.5891 N.am           1 S1                 0.0000
      6 ****        -0.4996  -0.4748   0.5034 C.2            1 S1                 0.0000
      7 ****        -0.8633  -1.6411   0.6565 O.2            1 S1                 0.0000
      8 ****         0.7663  -0.1252   0.2331 N.am           1 S1                 0.0000
      9 ****         1.8824  -1.0527   0.0651 C.3            1 S1                 0.0000
     10 ****         2.4758  -1.4016   1.4413 C.3            1 S1                 0.0000
     11 ****         2.9263  -0.4214  -0.8759 C.3            1 S1                 0.0000
     12 ****         4.1093  -1.3299  -1.2239 C.3            1 S1                 0.0000
     13 ****         4.5351  -0.8722  -2.6120 C.3            1 S1                 0.0000
     14 ****         3.4354   0.1011  -3.0398 C.3            1 S1                 0.0000
     15 ****         2.3603  -0.1638  -2.1524 O.3            1 S1                 0.0000
     16 ****        -3.2947   1.8565   1.0047 N.pl3          1 S1                 0.0000
     17 ****        -2.7823   3.2119   0.9535 C.3            1 S1                 0.0000
     18 ****        -4.6064   1.6379   1.2417 N.2            1 S1                 0.0000
     19 ****        -6.0889  -1.3604   1.3211 H              1 S1                 0.0000
     20 ****        -6.8384   0.1284   0.7549 H              1 S1                 0.0000
     21 ****        -6.4582  -0.0732   2.4643 H              1 S1                 0.0000
     22 ****        -3.3513  -1.4279   0.9013 H              1 S1                 0.0000
     23 ****        -0.8420   1.5006   0.4601 H              1 S1                 0.0000
     24 ****         0.9743   0.8559   0.1181 H              1 S1                 0.0000
     25 ****         1.5161  -1.9700  -0.3999 H              1 S1                 0.0000
     26 ****         3.2880  -2.1230   1.3526 H              1 S1                 0.0000
     27 ****         1.7236  -1.8432   2.0957 H              1 S1                 0.0000
     28 ****         2.8706  -0.5153   1.9390 H              1 S1                 0.0000
     29 ****         3.2940   0.5196  -0.4610 H              1 S1                 0.0000
     30 ****         4.9148  -1.2586  -0.4924 H              1 S1                 0.0000
     31 ****         3.7903  -2.3722  -1.2685 H              1 S1                 0.0000
     32 ****         5.5101  -0.3838  -2.6025 H              1 S1                 0.0000
     33 ****         4.5929  -1.7238  -3.2909 H              1 S1                 0.0000
     34 ****         3.7627   1.1336  -2.9076 H              1 S1                 0.0000
     35 ****         3.1366  -0.0315  -4.0799 H              1 S1                 0.0000
     36 ****        -2.0290   3.3480   1.7297 H              1 S1                 0.0000
     37 ****        -3.5857   3.9330   1.1101 H              1 S1                 0.0000
     38 ****        -2.3286   3.3949  -0.0207 H              1 S1                 0.0000
     39 ****        -1.8206  -1.8433   0.8631 LP             1 S1                 0.0000
     40 ****        -0.2014  -2.3862   0.5742 LP             1 S1                 0.0000
     41 ****         1.7520   0.6285  -2.1044 LP             1 S1                 0.0000
     42 ****         1.8449  -0.9612  -2.4664 LP             1 S1                 0.0000
     43 ****        -5.3178   2.3232   1.3977 LP             1 S1                 0.0000
@<TRIPOS>BOND
    1    1    2 1     
    2    1   19 1     
    3    1   20 1     
    4    1   21 1     
    5    2   18 2     
    6    2    3 1     
    7    3    4 2     
    8    3   22 1     
    9    4    5 1     
   10    4   16 1     
   11    5    6 am    
   12    5   23 1     
   13    6    7 2     
   14    6    8 am    
   15    8    9 1     
   16    8   24 1     
   17    9   10 1     
   18    9   11 1     
   19    9   25 1     
   20   10   26 1     
   21   10   27 1     
   22   10   28 1     
   23   11   15 1     
   24   11   12 1     
   25   11   29 1     
   26   12   13 1     
   27   12   30 1     
   28   12   31 1     
   29   13   14 1     
   30   13   32 1     
   31   13   33 1     
   32   14   15 1     
   33   14   34 1     
   34   14   35 1     
   35   16   17 1     
   36   16   18 1     
   37   17   36 1     
   38   17   37 1     
   39   17   38 1     
   40    7   39 1     
   41    7   40 1     
   42   15   41 1     
   43   15   42 1     
   44   18   43 1     
@<TRIPOS>SUBSTRUCTURE
      1 S1             1
@<TRIPOS>SET
LONE_PAIRS      STATIC     ATOMS    <user>   **** ""
5 39 40 41 42 43
DONOR_HYDROGENS      STATIC     ATOMS    <user>   **** ""
2 23 24
ATOM$BLUE        STATIC     ATOMS    COLORGROUP SYSTEM
5 39 40 41 42 43
ATOM$RED        STATIC     ATOMS    COLORGROUP SYSTEM
2 23 24
