AV-unprocessed.smi:16|AV-procd|sdf|97|dock3
  -GOLD-   2262015243D 1   1.00000     0.00000
 Structure written by MMmdl.
 59 63  0  0  0  0  0  0  0  0  1 V2000
  152.5136  138.3364  154.8121 C   0  0  0  0  0  0  0  0  0  0  0  0
  151.0391  137.9633  155.0239 C   0  0  0  0  0  0  0  0  0  0  0  0
  150.4380  138.7040  156.1361 N   0  0  0  0  0  0  0  0  0  0  0  0
  151.0116  140.0374  156.3634 C   0  0  0  0  0  0  0  0  0  0  0  0
  150.6296  141.0479  155.2618 C   0  0  0  0  0  0  0  0  0  0  0  0
  149.1060  141.1312  155.1211 C   0  0  1  0  0  0  0  0  0  0  0  0
  148.7569  141.9869  154.0379 O   0  0  0  0  0  0  0  0  0  0  0  0
  147.3447  142.1331  153.9181 C   0  0  0  0  0  0  0  0  0  0  0  0
  146.6975  140.7599  153.6659 C   0  0  0  0  0  0  0  0  0  0  0  0
  147.0871  139.8137  154.7061 N   0  0  0  0  0  0  0  0  0  0  0  0
  146.4252  138.6413  154.5857 C   0  0  0  0  0  0  0  0  0  0  0  0
  145.9463  138.0876  155.7265 N   0  0  0  0  0  0  0  0  0  0  0  0
  145.2960  136.9210  155.6810 C   0  0  0  0  0  0  0  0  0  0  0  0
  145.0229  136.1582  154.6202 N   0  0  0  0  0  0  0  0  0  0  0  0
  145.4973  136.7176  153.4700 C   0  0  0  0  0  0  0  0  0  0  0  0
  146.1959  137.9526  153.3604 C   0  0  0  0  0  0  0  0  0  0  0  0
  146.4991  138.2078  152.0283 N   0  0  0  0  0  0  0  0  0  0  0  0
  146.0113  137.1810  151.3878 C   0  0  0  0  0  0  0  0  0  0  0  0
  145.4208  136.2225  152.1802 N   0  0  0  0  0  0  0  0  0  0  0  0
  144.7848  135.0157  151.7414 C   0  0  0  0  0  0  0  0  0  0  0  0
  145.3459  133.6468  152.1320 C   0  0  0  0  0  0  0  0  0  0  0  0
  144.8629  133.0706  150.7818 C   0  0  0  0  0  0  0  0  0  0  0  0
  145.8442  132.1188  150.0786 C   0  0  0  0  0  0  0  0  0  0  0  0
  147.1621  132.6278  150.1128 O   0  0  0  0  0  0  0  0  0  0  0  0
  143.4612  132.4284  150.8042 C   0  0  0  0  0  0  0  0  0  0  0  0
  143.0184  132.1091  149.5007 O   0  0  0  0  0  0  0  0  0  0  0  0
  144.9064  134.5351  150.2932 C   0  0  0  0  0  0  0  0  0  0  0  0
  148.5396  139.7228  154.8630 C   0  0  2  0  0  0  0  0  0  0  0  0
  148.9785  138.7814  156.0143 C   0  0  0  0  0  0  0  0  0  0  0  0
  148.6912  141.5371  156.0463 H   0  0  0  0  0  0  0  0  0  0  0  0
  148.9532  139.3617  153.9220 H   0  0  0  0  0  0  0  0  0  0  0  0
  152.9701  137.6759  154.0749 H   0  0  0  0  0  0  0  0  0  0  0  0
  153.0833  138.2406  155.7369 H   0  0  0  0  0  0  0  0  0  0  0  0
  152.6299  139.3555  154.4443 H   0  0  0  0  0  0  0  0  0  0  0  0
  150.4786  138.1025  154.1002 H   0  0  0  0  0  0  0  0  0  0  0  0
  150.9949  136.8980  155.2533 H   0  0  0  0  0  0  0  0  0  0  0  0
  150.6408  140.4020  157.3222 H   0  0  0  0  0  0  0  0  0  0  0  0
  152.0941  139.9795  156.4675 H   0  0  0  0  0  0  0  0  0  0  0  0
  151.0307  142.0310  155.5092 H   0  0  0  0  0  0  0  0  0  0  0  0
  151.0819  140.7664  154.3107 H   0  0  0  0  0  0  0  0  0  0  0  0
  146.9384  142.5929  154.8204 H   0  0  0  0  0  0  0  0  0  0  0  0
  147.1268  142.8090  153.0911 H   0  0  0  0  0  0  0  0  0  0  0  0
  145.6117  140.8617  153.6389 H   0  0  0  0  0  0  0  0  0  0  0  0
  147.0087  140.3789  152.6919 H   0  0  0  0  0  0  0  0  0  0  0  0
  144.9494  136.5418  156.6310 H   0  0  0  0  0  0  0  0  0  0  0  0
  146.0783  137.0923  150.3132 H   0  0  0  0  0  0  0  0  0  0  0  0
  143.7372  135.1016  152.0348 H   0  0  0  0  0  0  0  0  0  0  0  0
  146.4332  133.6577  152.2284 H   0  0  0  0  0  0  0  0  0  0  0  0
  144.8832  133.2081  153.0166 H   0  0  0  0  0  0  0  0  0  0  0  0
  145.8531  131.1432  150.5656 H   0  0  0  0  0  0  0  0  0  0  0  0
  145.5591  131.9394  149.0418 H   0  0  0  0  0  0  0  0  0  0  0  0
  147.7654  131.9022  150.0597 H   0  0  0  0  0  0  0  0  0  0  0  0
  143.4591  131.5087  151.3896 H   0  0  0  0  0  0  0  0  0  0  0  0
  142.7284  133.0855  151.2728 H   0  0  0  0  0  0  0  0  0  0  0  0
  142.4553  131.3520  149.5526 H   0  0  0  0  0  0  0  0  0  0  0  0
  144.0773  134.8278  149.6482 H   0  0  0  0  0  0  0  0  0  0  0  0
  145.8644  134.8017  149.8425 H   0  0  0  0  0  0  0  0  0  0  0  0
  148.5845  137.7743  155.8745 H   0  0  0  0  0  0  0  0  0  0  0  0
  148.5674  139.1407  156.9587 H   0  0  0  0  0  0  0  0  0  0  0  0
  1  2  1  0  0  0  0
  1 32  1  0  0  0  0
  1 33  1  0  0  0  0
  1 34  1  0  0  0  0
  2  3  1  0  0  0  0
  2 35  1  0  0  0  0
  2 36  1  0  0  0  0
  3 29  1  0  0  0  0
  3  4  1  0  0  0  0
  4  5  1  0  0  0  0
  4 37  1  0  0  0  0
  4 38  1  0  0  0  0
  5  6  1  0  0  0  0
  5 39  1  0  0  0  0
  5 40  1  0  0  0  0
  6 30  1  0  0  0  0
  6 28  1  0  0  0  0
  6  7  1  0  0  0  0
  7  8  1  0  0  0  0
  8  9  1  0  0  0  0
  8 41  1  0  0  0  0
  8 42  1  0  0  0  0
  9 10  1  0  0  0  0
  9 43  1  0  0  0  0
  9 44  1  0  0  0  0
 10 11  1  0  0  0  0
 10 28  1  0  0  0  0
 11 16  1  0  0  0  0
 11 12  2  0  0  0  0
 12 13  1  0  0  0  0
 13 14  2  0  0  0  0
 13 45  1  0  0  0  0
 14 15  1  0  0  0  0
 15 19  1  0  0  0  0
 15 16  2  0  0  0  0
 16 17  1  0  0  0  0
 17 18  2  0  0  0  0
 18 19  1  0  0  0  0
 18 46  1  0  0  0  0
 19 20  1  0  0  0  0
 20 27  1  0  0  0  0
 20 21  1  0  0  0  0
 20 47  1  0  0  0  0
 21 22  1  0  0  0  0
 21 48  1  0  0  0  0
 21 49  1  0  0  0  0
 22 23  1  0  0  0  0
 22 25  1  0  0  0  0
 22 27  1  0  0  0  0
 23 24  1  0  0  0  0
 23 50  1  0  0  0  0
 23 51  1  0  0  0  0
 24 52  1  0  0  0  0
 25 26  1  0  0  0  0
 25 53  1  0  0  0  0
 25 54  1  0  0  0  0
 26 55  1  0  0  0  0
 27 56  1  0  0  0  0
 27 57  1  0  0  0  0
 28 31  1  0  0  0  0
 28 29  1  0  0  0  0
 29 58  1  0  0  0  0
 29 59  1  0  0  0  0
M  END
> <s_m_source_file>
AV-unprocessed.smi

> <i_m_source_file_index>
16

> <i_lp_mmshare_version>
43012

> <i_f3d_flags>
0

> <s_epik_input>
W0NIM11bQ0gyXU4oW0NIMl1bQ0gyXTEpW0NIMl1bQ0BASF0oW0NAQEhdMTIpTihbQ0gyXVtDSDJdTzIpYyhuW2NIXW4zKWMoYzM0KW5bY0hdbjRbQ0hdKFtDSDJdNSlbQ0gyXUM1KFtDSDJdW09IXSlbQ0gyXVtPSF0=

> <s_epik_cmdline>
J2VwaWtfcHl0aG9uJywgJy1waCcsICc3LjAnLCAnLXRuJywgJzgnLCAnLW1hJywgJzIwMCcsICctbWV0YWxfYmluZGluZycsICctaW1hZScsICc8aW5maWxlLm1hZT4nLCAnLW9tYWUnLCAnPG91dGZpbGUubWFlPic=

> <r_lp_tautomer_probability>
1

> <r_epik_Ionization_Penalty>
2.27341

> <r_epik_Ionization_Penalty_Charging>
0

> <r_epik_Ionization_Penalty_Neutral>
2.27341

> <r_epik_State_Penalty>
2.41121

> <r_epik_Charging_Adjusted_Penalty>
2.41121

> <i_epik_Tot_Q>
0

> <i_epik_Tot_abs_Q>
0

> <r_epik_Metal_State_Penalty>
2.40177

> <b_epik_Metal_Only>
0

> <s_lp_Force_Field>
OPLS_2005

> <r_lp_Energy>
55.3921

> <b_lp_Chiralities_Consistent>
1

> <s_lp_Variant>
AV-unprocessed.smi:16-11

> <Gold.Version>
5.8.1

> <Gold.Id.Protein>
6NUR|6NUR_protein|mol2

> <Gold.PLP.Fitness>
48.1147

> <Gold.PLP.PLP>
-41.5462

> <Gold.PLP.part.hbond>
-6.1910

> <Gold.PLP.part.metal>
0.0000

> <Gold.PLP.part.buried>
-0.1681

> <Gold.PLP.part.nonpolar>
-35.6366

> <Gold.PLP.part.repulsive>
0.6234

> <Gold.PLP.ligand.clash>
0.0427

> <Gold.PLP.ligand.torsion>
1.1604

> <Gold.PLP.Chemscore.Hbond>
2.4001

> <Gold.PLP.Chemscore.CHOScore>
0.3601

> <Gold.PLP.Chemscore.Metal>
0.0000

> <Gold.Chemscore.Hbonds>
donor molecule, donor type, donor heavy atom, donor atom, acceptor molecule, acceptor atom, score
      L1  H    24    52       P1 10747  1.00
      L1  H    26    55       P1 10952  1.00
      P1  H  8011  8017       L1     7  0.41
      L1  C    18    46       P1 10171  0.18

> <Gold.PLP.Chemscore.Internal.Correction>
0.6512

> <Gold.Rescore>
     Score         DG    S(hbond)    S(metal)    S(lipo)     H(rot)  DE(clash)    DE(int)     intcor
     13.04     -16.96       2.40        0.00     101.43       3.28       1.95       1.97       ----

> <Gold.Chemscore.Fitness>
13.0425

> <Gold.Chemscore.DG>
-16.9574

> <Gold.Chemscore.ZeroCoef>
-5.4800

> <Gold.Chemscore.Hbond>
2.3953

> <Gold.Chemscore.Metal>
0.0000

> <Gold.Chemscore.Lipo>
101.4348

> <Gold.Chemscore.Internal_Hbond>
0.0000

> <Gold.Chemscore.DEClash>
1.9469

> <Gold.Chemscore.DEInternal>
1.9680

> <Gold.Chemscore.Rot>
3.2776

> <Gold.Chemscore.Internal.Correction>
   9.000000E+99

> <Gold.Chemscore.Hbonds>
donor molecule, donor type, donor heavy atom, donor atom, acceptor molecule, acceptor atom, score
      L1  H    24    52       P1 10747  0.99
      L1  H    26    55       P1 10952  0.99
      P1  H  8011  8017       L1     7  0.34

> <Gold.Chemscore.Hbond.Weighted>
-8.0002

> <Gold.Chemscore.Metal.Weighted>
-0.0000

> <Gold.Chemscore.Lipo.Weighted>
-11.8679

> <Gold.Chemscore.Internal_Hbond.Weighted>
0.0000

> <Gold.Chemscore.DEClash.Weighted>
1.9469

> <Gold.Chemscore.DEInternal.Weighted>
1.9680

> <Gold.Chemscore.Rot.Weighted>
8.3907

> <Gold.Chemscore.Internal.Correction.Weighted>
   9.000000E+99

> <Gold.Protein.RotatedTorsions>
[ 6907 6896 6895 6894 ] final   -1.57 input  -60.11 | X-H torsion
[ 7974 7965 7964 7962 ] final  -52.48 input  175.53 | X-H torsion
[ 8008 7997 7996 7995 ] final -138.10 input   59.86 | X-H torsion
[ 10167 10162 10161 10158 ] final  113.49 input  -65.29 | X-H torsion
[ 10718 10713 10712 10709 ] final    0.95 input   66.30 | X-H torsion
[ 10763 10752 10751 10750 ] final  164.25 input  -60.55 | X-H torsion
[ 11005 11000 10999 10996 ] final  -94.33 input  -57.11 | X-H torsion

> <Gold.Protein.ActiveResidues>
 VAL166  LYS551  ARG553  GLY616  TRP617  ASP618  TYR619  PRO620  LYS621  CYS622 
 ASP623  PHE694  ASN695  SER759  ASP760  ASP761  ALA762  ILE779  LEU786  VAL792 
 PHE793  MET794  SER795  GLU796  ALA797  LYS798  CYS799  TRP800  GLU811  SER814 

> <Gold.Protein.RotatedAtoms>
  151.5439  135.1068  159.9932 H   0  0  0  0  0  0  0  0  0  0  0  0  # atno 6907 bound_to 6896
  152.4523  133.7649  159.6777 H   0  0  0  0  0  0  0  0  0  0  0  0  # atno 6908 bound_to 6896
  150.8455  133.7802  159.3069 H   0  0  0  0  0  0  0  0  0  0  0  0  # atno 6909 bound_to 6896
  145.9075  140.7943  142.9712 H   0  0  0  0  0  0  0  0  0  0  0  0  # atno 7974 bound_to 7965
  155.4227  140.0519  157.3024 H   0  0  0  0  0  0  0  0  0  0  0  0  # atno 8008 bound_to 7997
  154.4895  140.2114  155.9539 H   0  0  0  0  0  0  0  0  0  0  0  0  # atno 8009 bound_to 7997
  156.1322  140.3169  155.8372 H   0  0  0  0  0  0  0  0  0  0  0  0  # atno 8010 bound_to 7997
  139.6458  144.7126  151.2146 H   0  0  0  0  0  0  0  0  0  0  0  0  # atno 10167 bound_to 10162
  156.8410  130.5521  149.5677 H   0  0  0  0  0  0  0  0  0  0  0  0  # atno 10718 bound_to 10713
  154.3061  135.2758  155.2588 H   0  0  0  0  0  0  0  0  0  0  0  0  # atno 10763 bound_to 10752
  154.5004  135.5810  153.6530 H   0  0  0  0  0  0  0  0  0  0  0  0  # atno 10764 bound_to 10752
  152.9894  135.6156  154.3235 H   0  0  0  0  0  0  0  0  0  0  0  0  # atno 10765 bound_to 10752
  141.1473  133.7949  157.0283 H   0  0  0  0  0  0  0  0  0  0  0  0  # atno 11005 bound_to 11000
  144.6740  140.1774  143.7409 LP  0  0  0  0  0  0  0  0  0  0  0  0  # atno 17320 bound_to 7965
  145.8713  139.2273  143.1659 LP  0  0  0  0  0  0  0  0  0  0  0  0  # atno 17321 bound_to 7965
  140.7514  143.6234  150.8492 LP  0  0  0  0  0  0  0  0  0  0  0  0  # atno 17342 bound_to 10162
  139.9876  143.5882  152.2921 LP  0  0  0  0  0  0  0  0  0  0  0  0  # atno 17343 bound_to 10162
  156.0881  130.5874  150.9684 LP  0  0  0  0  0  0  0  0  0  0  0  0  # atno 17370 bound_to 10713
  157.6356  131.0916  150.8356 LP  0  0  0  0  0  0  0  0  0  0  0  0  # atno 17371 bound_to 10713
  140.0770  134.9670  157.1562 LP  0  0  0  0  0  0  0  0  0  0  0  0  # atno 17394 bound_to 11000
  140.3629  134.2474  155.7185 LP  0  0  0  0  0  0  0  0  0  0  0  0  # atno 17395 bound_to 11000

$$$$
