AV-unprocessed.smi:2248|AV-procd|sdf|9097|dock2
  -GOLD-   2272012293D 1   1.00000     0.00000
 Structure written by MMmdl.
 35 36  0  0  0  0  0  0  0  0  1 V2000
  151.6835  138.0192  154.5872 C   0  0  0  0  0  0  0  0  0  0  0  0
  150.5793  139.0544  154.6273 C   0  0  0  0  0  0  0  0  0  0  0  0
  149.3197  138.7922  154.0538 C   0  0  0  0  0  0  0  0  0  0  0  0
  148.3360  139.7943  154.1290 C   0  0  0  0  0  0  0  0  0  0  0  0
  148.6493  141.0078  154.7708 C   0  0  0  0  0  0  0  0  0  0  0  0
  149.9383  141.1910  155.3202 C   0  0  0  0  0  0  0  0  0  0  0  0
  150.1527  142.4470  155.9473 N   0  0  0  0  0  0  0  0  0  0  0  0
  150.9392  142.7265  157.0015 C   0  0  0  0  0  0  0  0  0  0  0  0
  151.6455  141.9147  157.6007 O   0  0  0  0  0  0  0  0  0  0  0  0
  150.8624  144.0232  157.3328 N   0  0  0  0  0  0  0  0  0  0  0  0
  151.5739  144.6442  158.4441 C   0  0  1  0  0  0  0  0  0  0  0  0
  150.8928  144.3214  159.7469 C   0  0  0  0  0  0  0  0  0  0  0  0
  151.6950  143.6998  160.6085 C   0  0  0  0  0  0  0  0  0  0  0  0
  153.0762  143.4698  160.0519 C   0  0  1  0  0  0  0  0  0  0  0  0
  153.5070  141.9912  160.0924 C   0  0  0  0  0  0  0  0  0  0  0  0
  153.6130  141.5117  161.4186 O   0  0  0  0  0  0  0  0  0  0  0  0
  153.0074  144.0773  158.6271 C   0  0  0  0  0  0  0  0  0  0  0  0
  150.8803  140.2181  155.2428 N   0  0  0  0  0  0  0  0  0  0  0  0
  151.5949  145.7285  158.3218 H   0  0  0  0  0  0  0  0  0  0  0  0
  153.7721  144.0531  160.6559 H   0  0  0  0  0  0  0  0  0  0  0  0
  151.4527  137.2244  153.8771 H   0  0  0  0  0  0  0  0  0  0  0  0
  151.8145  137.5708  155.5722 H   0  0  0  0  0  0  0  0  0  0  0  0
  152.6276  138.4761  154.2888 H   0  0  0  0  0  0  0  0  0  0  0  0
  149.1106  137.8496  153.5693 H   0  0  0  0  0  0  0  0  0  0  0  0
  147.3566  139.6351  153.7026 H   0  0  0  0  0  0  0  0  0  0  0  0
  147.9044  141.7875  154.8379 H   0  0  0  0  0  0  0  0  0  0  0  0
  149.6404  143.2219  155.5529 H   0  0  0  0  0  0  0  0  0  0  0  0
  150.2560  144.6209  156.7906 H   0  0  0  0  0  0  0  0  0  0  0  0
  149.8637  144.5875  159.9388 H   0  0  0  0  0  0  0  0  0  0  0  0
  151.4147  143.3833  161.6023 H   0  0  0  0  0  0  0  0  0  0  0  0
  152.7896  141.3742  159.5505 H   0  0  0  0  0  0  0  0  0  0  0  0
  154.4711  141.8658  159.5989 H   0  0  0  0  0  0  0  0  0  0  0  0
  154.5248  141.3510  161.6077 H   0  0  0  0  0  0  0  0  0  0  0  0
  153.2465  143.3327  157.8663 H   0  0  0  0  0  0  0  0  0  0  0  0
  153.7443  144.8737  158.5182 H   0  0  0  0  0  0  0  0  0  0  0  0
  1  2  1  0  0  0  0
  1 21  1  0  0  0  0
  1 22  1  0  0  0  0
  1 23  1  0  0  0  0
  2 18  1  0  0  0  0
  2  3  2  0  0  0  0
  3  4  1  0  0  0  0
  3 24  1  0  0  0  0
  4  5  2  0  0  0  0
  4 25  1  0  0  0  0
  5  6  1  0  0  0  0
  5 26  1  0  0  0  0
  6  7  1  0  0  0  0
  6 18  2  0  0  0  0
  7  8  1  0  0  0  0
  7 27  1  0  0  0  0
  8  9  2  0  0  0  0
  8 10  1  0  0  0  0
 10 11  1  0  0  0  0
 10 28  1  0  0  0  0
 11 19  1  0  0  0  0
 11 17  1  0  0  0  0
 11 12  1  0  0  0  0
 12 13  2  0  0  0  0
 12 29  1  0  0  0  0
 13 14  1  0  0  0  0
 13 30  1  0  0  0  0
 14 20  1  0  0  0  0
 14 15  1  0  0  0  0
 14 17  1  0  0  0  0
 15 16  1  0  0  0  0
 15 31  1  0  0  0  0
 15 32  1  0  0  0  0
 16 33  1  0  0  0  0
 17 34  1  0  0  0  0
 17 35  1  0  0  0  0
M  END
> <s_m_source_file>
AV-unprocessed.smi

> <i_m_source_file_index>
2248

> <i_lp_mmshare_version>
43012

> <i_f3d_flags>
0

> <s_epik_input>
W0NIM11jMVtjSF1bY0hdW2NIXWMobjEpW05IXUMoPU8pW05IXVtDQEBIXTJbQ0hdPVtDSF1bQ0BASF0oW0NIMl0yKVtDSDJdW09IXQ==

> <s_epik_cmdline>
J2VwaWtfcHl0aG9uJywgJy1waCcsICc3LjAnLCAnLXRuJywgJzgnLCAnLW1hJywgJzIwMCcsICctbWV0YWxfYmluZGluZycsICctaW1hZScsICc8aW5maWxlLm1hZT4nLCAnLW9tYWUnLCAnPG91dGZpbGUubWFlPic=

> <r_lp_tautomer_probability>
1

> <r_epik_Ionization_Penalty>
8.36606e-05

> <r_epik_Ionization_Penalty_Charging>
0

> <r_epik_Ionization_Penalty_Neutral>
8.36606e-05

> <r_epik_State_Penalty>
-0

> <r_epik_Charging_Adjusted_Penalty>
0

> <i_epik_Tot_Q>
0

> <i_epik_Tot_abs_Q>
0

> <r_epik_Metal_State_Penalty>
-0

> <b_epik_Metal_Only>
0

> <s_lp_Force_Field>
OPLS_2005

> <r_lp_Energy>
18.8307

> <b_lp_Chiralities_Consistent>
1

> <s_lp_Variant>
AV-unprocessed.smi:2248-4

> <Gold.Version>
5.8.1

> <Gold.Id.Protein>
6NUR|6NUR_protein|mol2

> <Gold.PLP.Fitness>
49.4054

> <Gold.PLP.PLP>
-43.4349

> <Gold.PLP.part.hbond>
-3.0000

> <Gold.PLP.part.metal>
0.0000

> <Gold.PLP.part.buried>
-4.0965

> <Gold.PLP.part.nonpolar>
-36.8242

> <Gold.PLP.part.repulsive>
0.2272

> <Gold.PLP.ligand.clash>
0.0000

> <Gold.PLP.ligand.torsion>
0.4922

> <Gold.PLP.Chemscore.Hbond>
2.3135

> <Gold.PLP.Chemscore.CHOScore>
0.0000

> <Gold.PLP.Chemscore.Metal>
0.0000

> <Gold.Chemscore.Hbonds>
donor molecule, donor type, donor heavy atom, donor atom, acceptor molecule, acceptor atom, score
      L1  H     7    27       P1  8028  1.00
      L1  H    10    28       P1  8028  0.98
      P1  H  7989  7998       L1    18  0.32

> <Gold.PLP.Chemscore.Internal.Correction>
0.0145

> <Gold.Rescore>
     Score         DG    S(hbond)    S(metal)    S(lipo)     H(rot)  DE(clash)    DE(int)     intcor
     16.38     -19.69       1.86        0.00     108.26       1.82       0.42       2.89       ----

> <Gold.Chemscore.Fitness>
16.3827

> <Gold.Chemscore.DG>
-19.6931

> <Gold.Chemscore.ZeroCoef>
-5.4800

> <Gold.Chemscore.Hbond>
1.8569

> <Gold.Chemscore.Metal>
0.0000

> <Gold.Chemscore.Lipo>
108.2574

> <Gold.Chemscore.Internal_Hbond>
0.0000

> <Gold.Chemscore.DEClash>
0.4164

> <Gold.Chemscore.DEInternal>
2.8940

> <Gold.Chemscore.Rot>
1.8184

> <Gold.Chemscore.Internal.Correction>
   9.000000E+99

> <Gold.Chemscore.Hbonds>
donor molecule, donor type, donor heavy atom, donor atom, acceptor molecule, acceptor atom, score
      L1  H     7    27       P1  8028  0.97
      L1  H    10    28       P1  8028  0.73

> <Gold.Chemscore.Hbond.Weighted>
-6.2020

> <Gold.Chemscore.Metal.Weighted>
-0.0000

> <Gold.Chemscore.Lipo.Weighted>
-12.6661

> <Gold.Chemscore.Internal_Hbond.Weighted>
0.0000

> <Gold.Chemscore.DEClash.Weighted>
0.4164

> <Gold.Chemscore.DEInternal.Weighted>
2.8940

> <Gold.Chemscore.Rot.Weighted>
4.6551

> <Gold.Chemscore.Internal.Correction.Weighted>
   9.000000E+99

> <Gold.Protein.RotatedTorsions>
[ 6907 6896 6895 6894 ] final  -45.53 input  -60.11 | X-H torsion
[ 7974 7965 7964 7962 ] final -112.12 input  175.53 | X-H torsion
[ 8008 7997 7996 7995 ] final  122.44 input   59.86 | X-H torsion
[ 10167 10162 10161 10158 ] final  -40.07 input  -65.29 | X-H torsion
[ 10718 10713 10712 10709 ] final  -59.22 input   66.30 | X-H torsion
[ 10763 10752 10751 10750 ] final  -55.86 input  -60.55 | X-H torsion
[ 11005 11000 10999 10996 ] final  -30.96 input  -57.11 | X-H torsion

> <Gold.Protein.ActiveResidues>
 VAL166  LYS551  ARG553  GLY616  TRP617  ASP618  TYR619  PRO620  LYS621  CYS622 
 ASP623  PHE694  ASN695  SER759  ASP760  ASP761  ALA762  ILE779  LEU786  VAL792 
 PHE793  MET794  SER795  GLU796  ALA797  LYS798  CYS799  TRP800  GLU811  SER814 

> <Gold.Protein.RotatedAtoms>
  150.9210  134.8627  159.7488 H   0  0  0  0  0  0  0  0  0  0  0  0  # atno 6907 bound_to 6896
  152.4992  134.4219  159.9493 H   0  0  0  0  0  0  0  0  0  0  0  0  # atno 6908 bound_to 6896
  151.4253  133.3646  159.2796 H   0  0  0  0  0  0  0  0  0  0  0  0  # atno 6909 bound_to 6896
  145.1478  140.8813  143.3664 H   0  0  0  0  0  0  0  0  0  0  0  0  # atno 7974 bound_to 7965
  156.2727  140.2786  156.1467 H   0  0  0  0  0  0  0  0  0  0  0  0  # atno 8008 bound_to 7997
  155.0896  140.0388  157.2682 H   0  0  0  0  0  0  0  0  0  0  0  0  # atno 8009 bound_to 7997
  154.6900  140.2627  155.6828 H   0  0  0  0  0  0  0  0  0  0  0  0  # atno 8010 bound_to 7997
  140.7045  143.3176  151.2872 H   0  0  0  0  0  0  0  0  0  0  0  0  # atno 10167 bound_to 10162
  156.1078  130.4178  150.0685 H   0  0  0  0  0  0  0  0  0  0  0  0  # atno 10718 bound_to 10713
  154.1975  135.6417  153.5077 H   0  0  0  0  0  0  0  0  0  0  0  0  # atno 10763 bound_to 10752
  153.0020  135.5443  154.6351 H   0  0  0  0  0  0  0  0  0  0  0  0  # atno 10764 bound_to 10752
  154.5755  135.2920  155.0758 H   0  0  0  0  0  0  0  0  0  0  0  0  # atno 10765 bound_to 10752
  140.9427  133.7269  156.1101 H   0  0  0  0  0  0  0  0  0  0  0  0  # atno 11005 bound_to 11000
  145.0463  139.3218  143.5951 LP  0  0  0  0  0  0  0  0  0  0  0  0  # atno 17320 bound_to 7965
  146.3498  139.9855  142.8691 LP  0  0  0  0  0  0  0  0  0  0  0  0  # atno 17321 bound_to 7965
  139.6619  144.0174  152.2698 LP  0  0  0  0  0  0  0  0  0  0  0  0  # atno 17342 bound_to 10162
  139.9744  144.6471  150.7959 LP  0  0  0  0  0  0  0  0  0  0  0  0  # atno 17343 bound_to 10162
  156.8656  130.9506  151.3614 LP  0  0  0  0  0  0  0  0  0  0  0  0  # atno 17370 bound_to 10713
  157.6256  130.8689  149.9183 LP  0  0  0  0  0  0  0  0  0  0  0  0  # atno 17371 bound_to 10713
  140.7711  134.3831  157.5507 LP  0  0  0  0  0  0  0  0  0  0  0  0  # atno 17394 bound_to 11000
  139.8825  134.9023  156.2829 LP  0  0  0  0  0  0  0  0  0  0  0  0  # atno 17395 bound_to 11000

$$$$
