AV-unprocessed.smi:1748|AV-procd|sdf|7038|dock10
  -GOLD-   22720 8253D 1   1.00000     0.00000
 Structure written by MMmdl.
 40 41  0  0  0  0  0  0  0  0  2 V2000
  146.8002  132.9002  151.7052 C   0  0  0  0  0  0  0  0  0  0  0  0
  146.5480  134.3218  152.0232 N   0  3  1  0  0  0  0  0  0  0  0  0
  145.5672  134.9438  151.0986 C   0  0  0  0  0  0  0  0  0  0  0  0
  145.4242  136.4506  151.3734 C   0  0  0  0  0  0  0  0  0  0  0  0
  145.0717  136.7198  152.8466 C   0  0  0  0  0  0  0  0  0  0  0  0
  146.0734  136.0292  153.7900 C   0  0  2  0  0  0  0  0  0  0  0  0
  147.3759  136.6904  153.7044 N   0  0  0  0  0  0  0  0  0  0  0  0
  147.9831  137.3410  154.7070 C   0  0  0  0  0  0  0  0  0  0  0  0
  147.5006  137.4407  155.8348 O   0  0  0  0  0  0  0  0  0  0  0  0
  149.1745  137.8264  154.3134 N   0  0  0  0  0  0  0  0  0  0  0  0
  150.1167  138.5643  155.0490 C   0  0  0  0  0  0  0  0  0  0  0  0
  149.8296  139.6616  155.7971 C   0  0  0  0  0  0  0  0  0  0  0  0
  150.8566  140.3874  156.5267 C   0  0  0  0  0  0  0  0  0  0  0  0
  150.5187  141.5636  157.4295 C   0  0  0  0  0  0  0  0  0  0  0  0
  150.9035  141.3308  158.6851 F   0  0  0  0  0  0  0  0  0  0  0  0
  151.1457  142.6580  157.0004 F   0  0  0  0  0  0  0  0  0  0  0  0
  149.2083  141.8088  157.4317 F   0  0  0  0  0  0  0  0  0  0  0  0
  152.1117  139.9122  156.4280 C   0  0  0  0  0  0  0  0  0  0  0  0
  152.4186  138.7995  155.6416 N   0  0  0  0  0  0  0  0  0  0  0  0
  151.5061  138.0896  154.9410 C   0  0  0  0  0  0  0  0  0  0  0  0
  151.8544  137.1172  154.2720 O   0  0  0  0  0  0  0  0  0  0  0  0
  146.1705  134.5261  153.4444 C   0  0  0  0  0  0  0  0  0  0  0  0
  153.3874  138.5163  155.6050 H   0  0  0  0  0  0  0  0  0  0  0  0
  145.8957  132.3038  151.8320 H   0  0  0  0  0  0  0  0  0  0  0  0
  147.5740  132.4919  152.3563 H   0  0  0  0  0  0  0  0  0  0  0  0
  147.1416  132.7908  150.6753 H   0  0  0  0  0  0  0  0  0  0  0  0
  145.8879  134.7913  150.0673 H   0  0  0  0  0  0  0  0  0  0  0  0
  144.6004  134.4493  151.2068 H   0  0  0  0  0  0  0  0  0  0  0  0
  146.3548  136.9584  151.1169 H   0  0  0  0  0  0  0  0  0  0  0  0
  144.6569  136.8747  150.7248 H   0  0  0  0  0  0  0  0  0  0  0  0
  145.0407  137.7931  153.0393 H   0  0  0  0  0  0  0  0  0  0  0  0
  144.0678  136.3438  153.0495 H   0  0  0  0  0  0  0  0  0  0  0  0
  145.7072  136.1352  154.8127 H   0  0  0  0  0  0  0  0  0  0  0  0
  147.8423  136.6618  152.8092 H   0  0  0  0  0  0  0  0  0  0  0  0
  149.4650  137.5991  153.3733 H   0  0  0  0  0  0  0  0  0  0  0  0
  148.8236  140.0442  155.8542 H   0  0  0  0  0  0  0  0  0  0  0  0
  152.9634  140.3366  156.9390 H   0  0  0  0  0  0  0  0  0  0  0  0
  145.2136  134.0382  153.6371 H   0  0  0  0  0  0  0  0  0  0  0  0
  146.8998  134.0367  154.0913 H   0  0  0  0  0  0  0  0  0  0  0  0
  147.4242  134.8053  151.8861 H   0  0  0  0  0  0  0  0  0  0  0  0
  1  2  1  0  0  0  0
  1 24  1  0  0  0  0
  1 25  1  0  0  0  0
  1 26  1  0  0  0  0
  2 22  1  0  0  0  0
  2  3  1  0  0  0  0
  2 40  1  0  0  0  0
  3  4  1  0  0  0  0
  3 27  1  0  0  0  0
  3 28  1  0  0  0  0
  4  5  1  0  0  0  0
  4 29  1  0  0  0  0
  4 30  1  0  0  0  0
  5  6  1  0  0  0  0
  5 31  1  0  0  0  0
  5 32  1  0  0  0  0
  6  7  1  0  0  0  0
  6 22  1  0  0  0  0
  6 33  1  0  0  0  0
  7  8  1  0  0  0  0
  7 34  1  0  0  0  0
  8  9  2  0  0  0  0
  8 10  1  0  0  0  0
 10 11  1  0  0  0  0
 10 35  1  0  0  0  0
 11 20  1  0  0  0  0
 11 12  2  0  0  0  0
 12 13  1  0  0  0  0
 12 36  1  0  0  0  0
 13 14  1  0  0  0  0
 13 18  2  0  0  0  0
 14 15  1  0  0  0  0
 14 16  1  0  0  0  0
 14 17  1  0  0  0  0
 18 19  1  0  0  0  0
 18 37  1  0  0  0  0
 19 23  1  0  0  0  0
 19 20  1  0  0  0  0
 20 21  2  0  0  0  0
 22 38  1  0  0  0  0
 22 39  1  0  0  0  0
M  CHG  1   2   1
M  END
> <s_m_source_file>
AV-unprocessed.smi

> <i_m_source_file_index>
1748

> <i_lp_mmshare_version>
43012

> <i_f3d_flags>
0

> <s_epik_input>
W0NIM11OMVtDSDJdW0NIMl1bQ0gyXVtDQEhdKFtDSDJdMSlbTkhdQyg9TylbTkhdYzJbY0hdYyhDKEYpKEYpRilbY0hdW25IXWMyPU8=

> <s_epik_cmdline>
J2VwaWtfcHl0aG9uJywgJy1waCcsICc3LjAnLCAnLXRuJywgJzgnLCAnLW1hJywgJzIwMCcsICctbWV0YWxfYmluZGluZycsICctaW1hZScsICc8aW5maWxlLm1hZT4nLCAnLW9tYWUnLCAnPG91dGZpbGUubWFlPic=

> <r_lp_tautomer_probability>
1

> <r_epik_Ionization_Penalty>
0.00746315

> <r_epik_Ionization_Penalty_Charging>
0.00744398

> <r_epik_Ionization_Penalty_Neutral>
1.91704e-05

> <r_epik_State_Penalty>
-0

> <r_epik_Charging_Adjusted_Penalty>
0.00744398

> <i_epik_Tot_Q>
1

> <i_epik_Tot_abs_Q>
1

> <r_epik_Metal_State_Penalty>
0.379332

> <b_epik_Metal_Only>
0

> <s_lp_Force_Field>
OPLS_2005

> <r_lp_Energy>
33.9877

> <b_lp_Chiralities_Consistent>
1

> <s_lp_Variant>
AV-unprocessed.smi:1748-3

> <Gold.Version>
5.8.1

> <Gold.Id.Protein>
6NUR|6NUR_protein|mol2

> <Gold.PLP.Fitness>
42.5687

> <Gold.PLP.PLP>
-29.2947

> <Gold.PLP.part.hbond>
-3.7694

> <Gold.PLP.part.metal>
0.0000

> <Gold.PLP.part.buried>
-4.1288

> <Gold.PLP.part.nonpolar>
-24.2024

> <Gold.PLP.part.repulsive>
1.1060

> <Gold.PLP.ligand.clash>
0.0000

> <Gold.PLP.ligand.torsion>
0.4552

> <Gold.PLP.Chemscore.Hbond>
4.7174

> <Gold.PLP.Chemscore.CHOScore>
0.0000

> <Gold.PLP.Chemscore.Metal>
0.0000

> <Gold.Chemscore.Hbonds>
donor molecule, donor type, donor heavy atom, donor atom, acceptor molecule, acceptor atom, score
      L1  H     2    40       P1  7948  1.92
      L1  H     7    34       P1  7948  0.98
      L1  H    10    35       P1  7948  0.72
      P1  H 10752 10764       L1    21  1.00

> <Gold.PLP.Chemscore.Internal.Correction>
0.0321

> <Gold.Rescore>
     Score         DG    S(hbond)    S(metal)    S(lipo)     H(rot)  DE(clash)    DE(int)     intcor
     19.11     -19.63       3.24        0.00      50.32       1.00       0.10       0.42       ----

> <Gold.Chemscore.Fitness>
19.1138

> <Gold.Chemscore.DG>
-19.6345

> <Gold.Chemscore.ZeroCoef>
-5.4800

> <Gold.Chemscore.Hbond>
3.2417

> <Gold.Chemscore.Metal>
0.0000

> <Gold.Chemscore.Lipo>
50.3167

> <Gold.Chemscore.Internal_Hbond>
0.0000

> <Gold.Chemscore.DEClash>
0.1027

> <Gold.Chemscore.DEInternal>
0.4180

> <Gold.Chemscore.Rot>
1.0000

> <Gold.Chemscore.Internal.Correction>
   9.000000E+99

> <Gold.Chemscore.Hbonds>
donor molecule, donor type, donor heavy atom, donor atom, acceptor molecule, acceptor atom, score
      L1  H     2    40       P1  7948  0.72
      L1  H     7    34       P1  7948  0.89
      L1  H    10    35       P1  7948  0.64
      P1  H 10752 10764       L1    21  0.97

> <Gold.Chemscore.Hbond.Weighted>
-10.8274

> <Gold.Chemscore.Metal.Weighted>
-0.0000

> <Gold.Chemscore.Lipo.Weighted>
-5.8871

> <Gold.Chemscore.Internal_Hbond.Weighted>
0.0000

> <Gold.Chemscore.DEClash.Weighted>
0.1027

> <Gold.Chemscore.DEInternal.Weighted>
0.4180

> <Gold.Chemscore.Rot.Weighted>
2.5600

> <Gold.Chemscore.Internal.Correction.Weighted>
   9.000000E+99

> <Gold.Protein.RotatedTorsions>
[ 6907 6896 6895 6894 ] final  176.41 input  -60.11 | X-H torsion
[ 7974 7965 7964 7962 ] final -169.60 input  175.53 | X-H torsion
[ 8008 7997 7996 7995 ] final -101.14 input   59.86 | X-H torsion
[ 10167 10162 10161 10158 ] final  -31.09 input  -65.29 | X-H torsion
[ 10718 10713 10712 10709 ] final  -31.48 input   66.30 | X-H torsion
[ 10763 10752 10751 10750 ] final  -84.77 input  -60.55 | X-H torsion
[ 11005 11000 10999 10996 ] final  -90.99 input  -57.11 | X-H torsion

> <Gold.Protein.ActiveResidues>
 VAL166  LYS551  ARG553  GLY616  TRP617  ASP618  TYR619  PRO620  LYS621  CYS622 
 ASP623  PHE694  ASN695  SER759  ASP760  ASP761  ALA762  ILE779  LEU786  VAL792 
 PHE793  MET794  SER795  GLU796  ALA797  LYS798  CYS799  TRP800  GLU811  SER814 

> <Gold.Protein.RotatedAtoms>
  151.7206  133.3314  159.3314 H   0  0  0  0  0  0  0  0  0  0  0  0  # atno 6907 bound_to 6896
  150.7654  134.6451  159.6267 H   0  0  0  0  0  0  0  0  0  0  0  0  # atno 6908 bound_to 6896
  152.3654  134.6814  160.0245 H   0  0  0  0  0  0  0  0  0  0  0  0  # atno 6909 bound_to 6896
  144.7183  140.2196  143.6317 H   0  0  0  0  0  0  0  0  0  0  0  0  # atno 7974 bound_to 7965
  154.8384  140.0436  157.1525 H   0  0  0  0  0  0  0  0  0  0  0  0  # atno 8008 bound_to 7997
  154.9074  140.3009  155.5264 H   0  0  0  0  0  0  0  0  0  0  0  0  # atno 8009 bound_to 7997
  156.2991  140.2364  156.4109 H   0  0  0  0  0  0  0  0  0  0  0  0  # atno 8010 bound_to 7997
  140.7241  143.3798  151.1622 H   0  0  0  0  0  0  0  0  0  0  0  0  # atno 10167 bound_to 10162
  156.3867  130.4365  149.7426 H   0  0  0  0  0  0  0  0  0  0  0  0  # atno 10718 bound_to 10713
  154.6033  135.5509  153.7397 H   0  0  0  0  0  0  0  0  0  0  0  0  # atno 10763 bound_to 10752
  153.0164  135.6372  154.1683 H   0  0  0  0  0  0  0  0  0  0  0  0  # atno 10764 bound_to 10752
  154.1622  135.2896  155.3085 H   0  0  0  0  0  0  0  0  0  0  0  0  # atno 10765 bound_to 10752
  141.1554  133.7727  156.9816 H   0  0  0  0  0  0  0  0  0  0  0  0  # atno 11005 bound_to 11000
  145.8513  139.2177  143.1770 LP  0  0  0  0  0  0  0  0  0  0  0  0  # atno 17320 bound_to 7965
  146.0258  140.8305  142.9901 LP  0  0  0  0  0  0  0  0  0  0  0  0  # atno 17321 bound_to 7965
  139.7384  143.8962  152.3042 LP  0  0  0  0  0  0  0  0  0  0  0  0  # atno 17342 bound_to 10162
  139.8775  144.7035  150.8916 LP  0  0  0  0  0  0  0  0  0  0  0  0  # atno 17343 bound_to 10162
  156.4495  130.7900  151.2921 LP  0  0  0  0  0  0  0  0  0  0  0  0  # atno 17370 bound_to 10713
  157.7496  131.0100  150.3288 LP  0  0  0  0  0  0  0  0  0  0  0  0  # atno 17371 bound_to 10713
  140.1062  134.9505  157.1997 LP  0  0  0  0  0  0  0  0  0  0  0  0  # atno 17394 bound_to 11000
  140.3253  134.2870  155.7238 LP  0  0  0  0  0  0  0  0  0  0  0  0  # atno 17395 bound_to 11000

$$$$
