#       Name:                AV-unprocessed.smi:2855
#       Creating user name   scv26
#       Creation time:       Fri Mar 27 15:43:06 2020


#       File generated by GOLD software.
#

@<TRIPOS>MOLECULE
AV-unprocessed.smi:2855
    53    54     1
SMALL
NO_CHARGES


@<TRIPOS>ATOM
      1 ****        -4.9088   0.1174   0.0863 C.3            1 S1                 0.0000
      2 ****        -3.4236   0.2027   0.4662 C.3            1 S1                 0.0000
      3 ****        -3.2150   1.0364   1.7400 C.3            1 S1                 0.0000
      4 ****        -1.7301   1.1270   2.1256 C.3            1 S1                 0.0000
      5 ****        -0.8549   1.7099   0.9872 C.3            1 S1                 0.0000
      6 ****         0.6479   1.8290   1.3933 C.3            1 S1                 0.0000
      7 ****         0.8565   2.7184   2.6342 C.3            1 S1                 0.0000
      8 ****         1.5361   2.3595   0.2508 C.3            1 S1                 0.0000
      9 ****        -1.0864   0.9027  -0.3222 C.3            1 S1                 0.0000
     10 ****        -0.4703  -0.4212  -0.2353 N.am           1 S1                 0.0000
     11 ****         0.2086  -1.0381  -1.2135 C.2            1 S1                 0.0000
     12 ****         0.3330  -0.5785  -2.3491 O.2            1 S1                 0.0000
     13 ****         0.8388  -2.3887  -0.8521 C.3            1 S1                 0.0000
     14 ****         2.2130  -2.5089  -1.3585 N.am           1 S1                 0.0000
     15 ****         2.4812  -3.2598  -2.4942 C.2            1 S1                 0.0000
     16 ****         3.7219  -3.4013  -3.0182 C.2            1 S1                 0.0000
     17 ****         4.8672  -2.7490  -2.3924 C.2            1 S1                 0.0000
     18 ****         6.0274  -2.8178  -2.7913 O.2            1 S1                 0.0000
     19 ****         4.5565  -2.0010  -1.2535 N.am           1 S1                 0.0000
     20 ****         3.2805  -1.8503  -0.7085 C.2            1 S1                 0.0000
     21 ****         3.1155  -1.1634   0.2995 O.2            1 S1                 0.0000
     22 ****        -2.5811   0.7842  -0.6829 C.3            1 S1                 0.0000
     23 ****         5.3177  -1.5289  -0.7877 H              1 S1                 0.0000
     24 ****        -5.3225   1.1043  -0.1229 H              1 S1                 0.0000
     25 ****        -5.4950  -0.3254   0.8919 H              1 S1                 0.0000
     26 ****        -5.0521  -0.4984  -0.8020 H              1 S1                 0.0000
     27 ****        -3.0794  -0.8131   0.6653 H              1 S1                 0.0000
     28 ****        -3.6127   2.0417   1.5933 H              1 S1                 0.0000
     29 ****        -3.7786   0.6003   2.5656 H              1 S1                 0.0000
     30 ****        -1.6600   1.7437   3.0201 H              1 S1                 0.0000
     31 ****        -1.3646   0.1384   2.4065 H              1 S1                 0.0000
     32 ****        -1.2149   2.7224   0.7975 H              1 S1                 0.0000
     33 ****         1.0170   0.8353   1.6506 H              1 S1                 0.0000
     34 ****         0.4201   3.7074   2.4914 H              1 S1                 0.0000
     35 ****         1.9174   2.8541   2.8463 H              1 S1                 0.0000
     36 ****         0.4186   2.2810   3.5305 H              1 S1                 0.0000
     37 ****         1.1810   3.3244  -0.1121 H              1 S1                 0.0000
     38 ****         1.5712   1.6729  -0.5943 H              1 S1                 0.0000
     39 ****         2.5664   2.4897   0.5825 H              1 S1                 0.0000
     40 ****        -0.6207   1.4551  -1.1393 H              1 S1                 0.0000
     41 ****        -0.5270  -0.8848   0.6600 H              1 S1                 0.0000
     42 ****         0.8268  -2.5422   0.2293 H              1 S1                 0.0000
     43 ****         0.2062  -3.1769  -1.2626 H              1 S1                 0.0000
     44 ****         1.6627  -3.7576  -2.9946 H              1 S1                 0.0000
     45 ****         3.8676  -3.9990  -3.9064 H              1 S1                 0.0000
     46 ****        -2.6998   0.1748  -1.5799 H              1 S1                 0.0000
     47 ****        -2.9610   1.7739  -0.9400 H              1 S1                 0.0000
     48 ****        -0.0844   0.3000  -2.5815 LP             1 S1                 0.0000
     49 ****         0.8515  -1.0838  -3.0390 LP             1 S1                 0.0000
     50 ****         6.2448  -3.3541  -3.6069 LP             1 S1                 0.0000
     51 ****         6.7543  -2.3376  -2.3003 LP             1 S1                 0.0000
     52 ****         2.1999  -1.0560   0.6869 LP             1 S1                 0.0000
     53 ****         3.8971  -0.7129   0.7309 LP             1 S1                 0.0000
@<TRIPOS>BOND
    1    1    2 1     
    2    1   24 1     
    3    1   25 1     
    4    1   26 1     
    5    2   22 1     
    6    2    3 1     
    7    2   27 1     
    8    3    4 1     
    9    3   28 1     
   10    3   29 1     
   11    4    5 1     
   12    4   30 1     
   13    4   31 1     
   14    5    6 1     
   15    5    9 1     
   16    5   32 1     
   17    6    7 1     
   18    6    8 1     
   19    6   33 1     
   20    7   34 1     
   21    7   35 1     
   22    7   36 1     
   23    8   37 1     
   24    8   38 1     
   25    8   39 1     
   26    9   10 1     
   27    9   22 1     
   28    9   40 1     
   29   10   11 am    
   30   10   41 1     
   31   11   12 2     
   32   11   13 1     
   33   13   14 1     
   34   13   42 1     
   35   13   43 1     
   36   14   20 1     
   37   14   15 1     
   38   15   16 2     
   39   15   44 1     
   40   16   17 1     
   41   16   45 1     
   42   17   18 2     
   43   17   19 1     
   44   19   23 1     
   45   19   20 1     
   46   20   21 2     
   47   22   46 1     
   48   22   47 1     
   49   12   48 1     
   50   12   49 1     
   51   18   50 1     
   52   18   51 1     
   53   21   52 1     
   54   21   53 1     
@<TRIPOS>SUBSTRUCTURE
      1 S1             1
@<TRIPOS>SET
LONE_PAIRS      STATIC     ATOMS    <user>   **** ""
6 48 49 50 51 52 53
DONOR_HYDROGENS      STATIC     ATOMS    <user>   **** ""
2 41 23
ATOM$BLUE        STATIC     ATOMS    COLORGROUP SYSTEM
6 48 49 50 51 52 53
ATOM$RED        STATIC     ATOMS    COLORGROUP SYSTEM
2 41 23
