AV-unprocessed.smi:2032|AV-procd|sdf|8247|dock2
  -GOLD-   2272010513D 1   1.00000     0.00000
 Structure written by MMmdl.
 41 42  0  0  0  0  0  0  0  0  2 V2000
  154.0329  141.6547  160.0690 C   0  0  0  0  0  0  0  0  0  0  0  0
  152.8074  142.5190  159.7544 C   0  0  2  0  0  0  0  0  0  0  0  0
  151.8811  141.8560  158.7195 C   0  0  0  0  0  0  0  0  0  0  0  0
  150.7391  142.6994  158.3554 N   0  0  0  0  0  0  0  0  0  0  0  0
  149.8348  142.0473  157.3774 C   0  0  1  0  0  0  0  0  0  0  0  0
  149.8056  140.5038  157.5226 C   0  0  0  0  0  0  0  0  0  0  0  0
  148.3777  142.5834  157.4382 C   0  0  0  0  0  0  0  0  0  0  0  0
  147.7125  142.2644  158.6978 N   0  0  0  0  0  0  0  0  0  0  0  0
  146.5421  142.7751  159.1027 C   0  0  0  0  0  0  0  0  0  0  0  0
  145.9425  143.5781  158.3838 O   0  0  0  0  0  0  0  0  0  0  0  0
  146.1370  142.3240  160.3119 N   0  5  0  0  0  0  0  0  0  0  0  0
  145.1228  142.9327  160.9483 C   0  0  0  0  0  0  0  0  0  0  0  0
  145.0066  142.9580  162.2811 N   0  0  0  0  0  0  0  0  0  0  0  0
  143.8770  143.6466  162.7271 C   0  0  0  0  0  0  0  0  0  0  0  0
  143.1092  144.1479  161.7096 C   0  0  0  0  0  0  0  0  0  0  0  0
  143.7862  143.7680  160.1516 S   0  0  0  0  0  0  0  0  0  0  0  0
  151.2618  143.9840  157.8747 C   0  0  0  0  0  0  0  0  0  0  0  0
  152.2331  144.6680  158.8581 C   0  0  1  0  0  0  0  0  0  0  0  0
  151.5297  145.2949  160.0742 C   0  0  0  0  0  0  0  0  0  0  0  0
  153.2669  143.7674  159.2488 O   0  0  0  0  0  0  0  0  0  0  0  0
  153.7373  140.6844  160.4690 H   0  0  0  0  0  0  0  0  0  0  0  0
  154.6702  142.1379  160.8098 H   0  0  0  0  0  0  0  0  0  0  0  0
  154.6335  141.4803  159.1759 H   0  0  0  0  0  0  0  0  0  0  0  0
  152.2587  142.6812  160.6825 H   0  0  0  0  0  0  0  0  0  0  0  0
  152.4509  141.6000  157.8249 H   0  0  0  0  0  0  0  0  0  0  0  0
  151.5408  140.9195  159.1569 H   0  0  0  0  0  0  0  0  0  0  0  0
  150.2109  142.2644  156.3763 H   0  0  0  0  0  0  0  0  0  0  0  0
  149.0948  140.0330  156.8446 H   0  0  0  0  0  0  0  0  0  0  0  0
  149.5334  140.2086  158.5365 H   0  0  0  0  0  0  0  0  0  0  0  0
  150.7653  140.0482  157.2832 H   0  0  0  0  0  0  0  0  0  0  0  0
  148.3707  143.6643  157.2870 H   0  0  0  0  0  0  0  0  0  0  0  0
  147.7579  142.1452  156.6574 H   0  0  0  0  0  0  0  0  0  0  0  0
  148.1757  141.6103  159.3114 H   0  0  0  0  0  0  0  0  0  0  0  0
  143.6963  143.7301  163.7884 H   0  0  0  0  0  0  0  0  0  0  0  0
  142.1923  144.7130  161.7800 H   0  0  0  0  0  0  0  0  0  0  0  0
  151.7731  143.8308  156.9231 H   0  0  0  0  0  0  0  0  0  0  0  0
  150.4543  144.6878  157.6845 H   0  0  0  0  0  0  0  0  0  0  0  0
  152.7260  145.4820  158.3258 H   0  0  0  0  0  0  0  0  0  0  0  0
  150.8342  146.0733  159.7598 H   0  0  0  0  0  0  0  0  0  0  0  0
  152.2538  145.7523  160.7486 H   0  0  0  0  0  0  0  0  0  0  0  0
  150.9593  144.5607  160.6425 H   0  0  0  0  0  0  0  0  0  0  0  0
  1  2  1  0  0  0  0
  1 21  1  0  0  0  0
  1 22  1  0  0  0  0
  1 23  1  0  0  0  0
  2 20  1  0  0  0  0
  2  3  1  0  0  0  0
  2 24  1  0  0  0  0
  3  4  1  0  0  0  0
  3 25  1  0  0  0  0
  3 26  1  0  0  0  0
  4  5  1  0  0  0  0
  4 17  1  0  0  0  0
  5  6  1  0  0  0  0
  5  7  1  0  0  0  0
  5 27  1  0  0  0  0
  6 28  1  0  0  0  0
  6 29  1  0  0  0  0
  6 30  1  0  0  0  0
  7  8  1  0  0  0  0
  7 31  1  0  0  0  0
  7 32  1  0  0  0  0
  8  9  1  0  0  0  0
  8 33  1  0  0  0  0
  9 10  2  0  0  0  0
  9 11  1  0  0  0  0
 11 12  1  0  0  0  0
 12 16  1  0  0  0  0
 12 13  2  0  0  0  0
 13 14  1  0  0  0  0
 14 15  2  0  0  0  0
 14 34  1  0  0  0  0
 15 16  1  0  0  0  0
 15 35  1  0  0  0  0
 17 18  1  0  0  0  0
 17 36  1  0  0  0  0
 17 37  1  0  0  0  0
 18 19  1  0  0  0  0
 18 20  1  0  0  0  0
 18 38  1  0  0  0  0
 19 39  1  0  0  0  0
 19 40  1  0  0  0  0
 19 41  1  0  0  0  0
M  CHG  1  11  -1
M  END
> <s_m_source_file>
AV-unprocessed.smi

> <i_m_source_file_index>
2032

> <i_lp_mmshare_version>
43012

> <i_f3d_flags>
0

> <s_epik_input>
W0NIM11bQ0BASF0xW0NIMl1OKFtDSDJdW0NASF0oTzEpW0NIM10pW0NASF0oW0NIM10pW0NIMl1bTkhdQyg9TylbTkhdYzJuW2NIXVtjSF1zMg==

> <s_epik_cmdline>
J2VwaWtfcHl0aG9uJywgJy1waCcsICc3LjAnLCAnLXRuJywgJzgnLCAnLW1hJywgJzIwMCcsICctbWV0YWxfYmluZGluZycsICctaW1hZScsICc8aW5maWxlLm1hZT4nLCAnLW9tYWUnLCAnPG91dGZpbGUubWFlPic=

> <r_lp_tautomer_probability>
0.999

> <r_epik_Ionization_Penalty>
7.22375

> <r_epik_Ionization_Penalty_Charging>
5.82415

> <r_epik_Ionization_Penalty_Neutral>
1.39959

> <r_epik_State_Penalty>
6.03347

> <r_epik_Charging_Adjusted_Penalty>
11.8576

> <i_epik_Tot_Q>
-1

> <i_epik_Tot_abs_Q>
1

> <r_epik_Metal_State_Penalty>
2.01024

> <b_epik_Metal_Only>
1

> <s_lp_Force_Field>
OPLS_2005

> <r_lp_Energy>
26.6576

> <b_lp_Chiralities_Consistent>
1

> <s_lp_Variant>
AV-unprocessed.smi:2032-17

> <Gold.Version>
5.8.1

> <Gold.Id.Protein>
6NUR|6NUR_protein|mol2

> <Gold.PLP.Fitness>
41.2801

> <Gold.PLP.PLP>
-36.8631

> <Gold.PLP.part.hbond>
-1.3863

> <Gold.PLP.part.metal>
0.0000

> <Gold.PLP.part.buried>
-2.8036

> <Gold.PLP.part.nonpolar>
-32.3484

> <Gold.PLP.part.repulsive>
0.4675

> <Gold.PLP.ligand.clash>
0.0000

> <Gold.PLP.ligand.torsion>
0.8677

> <Gold.PLP.Chemscore.Hbond>
2.0000

> <Gold.PLP.Chemscore.CHOScore>
0.0000

> <Gold.PLP.Chemscore.Metal>
0.0000

> <Gold.Chemscore.Hbonds>
donor molecule, donor type, donor heavy atom, donor atom, acceptor molecule, acceptor atom, score
      P1  H  6934  6946       L1    11  2.00

> <Gold.PLP.Chemscore.Internal.Correction>
0.1525

> <Gold.Rescore>
     Score         DG    S(hbond)    S(metal)    S(lipo)     H(rot)  DE(clash)    DE(int)     intcor
     13.41     -15.76       0.93        0.00      95.12       1.54       0.13       2.22       ----

> <Gold.Chemscore.Fitness>
13.4090

> <Gold.Chemscore.DG>
-15.7573

> <Gold.Chemscore.ZeroCoef>
-5.4800

> <Gold.Chemscore.Hbond>
0.9276

> <Gold.Chemscore.Metal>
0.0000

> <Gold.Chemscore.Lipo>
95.1228

> <Gold.Chemscore.Internal_Hbond>
0.0000

> <Gold.Chemscore.DEClash>
0.1251

> <Gold.Chemscore.DEInternal>
2.2232

> <Gold.Chemscore.Rot>
1.5431

> <Gold.Chemscore.Internal.Correction>
   9.000000E+99

> <Gold.Chemscore.Hbonds>
donor molecule, donor type, donor heavy atom, donor atom, acceptor molecule, acceptor atom, score
      P1  H  6934  6946       L1    11  0.82

> <Gold.Chemscore.Hbond.Weighted>
-3.0982

> <Gold.Chemscore.Metal.Weighted>
-0.0000

> <Gold.Chemscore.Lipo.Weighted>
-11.1294

> <Gold.Chemscore.Internal_Hbond.Weighted>
0.0000

> <Gold.Chemscore.DEClash.Weighted>
0.1251

> <Gold.Chemscore.DEInternal.Weighted>
2.2232

> <Gold.Chemscore.Rot.Weighted>
3.9503

> <Gold.Chemscore.Internal.Correction.Weighted>
   9.000000E+99

> <Gold.Protein.RotatedTorsions>
[ 6907 6896 6895 6894 ] final -161.40 input  -60.11 | X-H torsion
[ 7974 7965 7964 7962 ] final   91.11 input  175.53 | X-H torsion
[ 8008 7997 7996 7995 ] final -157.38 input   59.86 | X-H torsion
[ 10167 10162 10161 10158 ] final  158.98 input  -65.29 | X-H torsion
[ 10718 10713 10712 10709 ] final   53.36 input   66.30 | X-H torsion
[ 10763 10752 10751 10750 ] final  -63.70 input  -60.55 | X-H torsion
[ 11005 11000 10999 10996 ] final -101.63 input  -57.11 | X-H torsion

> <Gold.Protein.ActiveResidues>
 VAL166  LYS551  ARG553  GLY616  TRP617  ASP618  TYR619  PRO620  LYS621  CYS622 
 ASP623  PHE694  ASN695  SER759  ASP760  ASP761  ALA762  ILE779  LEU786  VAL792 
 PHE793  MET794  SER795  GLU796  ALA797  LYS798  CYS799  TRP800  GLU811  SER814 

> <Gold.Protein.RotatedAtoms>
  151.3641  133.3878  159.2692 H   0  0  0  0  0  0  0  0  0  0  0  0  # atno 6907 bound_to 6896
  150.9702  134.9077  159.7794 H   0  0  0  0  0  0  0  0  0  0  0  0  # atno 6908 bound_to 6896
  152.5182  134.3603  159.9334 H   0  0  0  0  0  0  0  0  0  0  0  0  # atno 6909 bound_to 6896
  145.5101  139.2277  143.2729 H   0  0  0  0  0  0  0  0  0  0  0  0  # atno 7974 bound_to 7965
  155.7315  140.0802  157.2287 H   0  0  0  0  0  0  0  0  0  0  0  0  # atno 8008 bound_to 7997
  154.4032  140.1594  156.2568 H   0  0  0  0  0  0  0  0  0  0  0  0  # atno 8009 bound_to 7997
  155.9105  140.3404  155.6097 H   0  0  0  0  0  0  0  0  0  0  0  0  # atno 8010 bound_to 7997
  139.4829  144.4773  151.8493 H   0  0  0  0  0  0  0  0  0  0  0  0  # atno 10167 bound_to 10162
  157.5160  130.8532  149.8496 H   0  0  0  0  0  0  0  0  0  0  0  0  # atno 10718 bound_to 10713
  154.3190  135.6200  153.5499 H   0  0  0  0  0  0  0  0  0  0  0  0  # atno 10763 bound_to 10752
  152.9822  135.5719  154.5091 H   0  0  0  0  0  0  0  0  0  0  0  0  # atno 10764 bound_to 10752
  154.4756  135.2861  155.1586 H   0  0  0  0  0  0  0  0  0  0  0  0  # atno 10765 bound_to 10752
  141.1223  133.8493  157.1256 H   0  0  0  0  0  0  0  0  0  0  0  0  # atno 11005 bound_to 11000
  146.2172  140.5907  142.9033 LP  0  0  0  0  0  0  0  0  0  0  0  0  # atno 17320 bound_to 7965
  144.7732  140.5683  143.6656 LP  0  0  0  0  0  0  0  0  0  0  0  0  # atno 17321 bound_to 7965
  140.4246  144.2197  150.5887 LP  0  0  0  0  0  0  0  0  0  0  0  0  # atno 17342 bound_to 10162
  140.4839  143.2369  151.8915 LP  0  0  0  0  0  0  0  0  0  0  0  0  # atno 17343 bound_to 10162
  156.0320  130.3762  150.1661 LP  0  0  0  0  0  0  0  0  0  0  0  0  # atno 17370 bound_to 10713
  156.9850  130.9876  151.3428 LP  0  0  0  0  0  0  0  0  0  0  0  0  # atno 17371 bound_to 10713
  140.0190  134.9954  157.0554 LP  0  0  0  0  0  0  0  0  0  0  0  0  # atno 17394 bound_to 11000
  140.4471  134.1621  155.7178 LP  0  0  0  0  0  0  0  0  0  0  0  0  # atno 17395 bound_to 11000

$$$$
