AV-unprocessed.smi:2226|AV-procd|sdf|9017|dock8
  -GOLD-   2272012223D 1   1.00000     0.00000
 Structure written by MMmdl.
 39 41  0  0  0  0  0  0  0  0  3 V2000
  146.8155  138.5021  152.5722 C   0  0  0  0  0  0  0  0  0  0  0  0
  147.7411  139.5160  153.1315 N   0  3  2  0  0  0  0  0  0  0  0  0
  148.6492  139.0142  154.1902 C   0  0  2  0  0  0  0  0  0  0  0  0
  147.8769  138.7003  155.4965 C   0  0  0  0  0  0  0  0  0  0  0  0
  146.9770  139.8481  155.9895 C   0  0  0  0  0  0  0  0  0  0  0  0
  146.2357  140.5575  154.8424 C   0  0  0  0  0  0  0  0  0  0  0  0
  147.0936  140.7746  153.5709 C   0  0  1  0  0  0  0  0  0  0  0  0
  148.1672  141.8814  153.6804 C   0  0  0  0  0  0  0  0  0  0  0  0
  149.4609  141.4937  154.4496 C   0  0  1  0  0  0  0  0  0  0  0  0
  149.4570  141.9441  155.8392 N   0  0  0  0  0  0  0  0  0  0  0  0
  150.4832  141.8909  156.7009 C   0  0  0  0  0  0  0  0  0  0  0  0
  151.5616  141.4100  156.3456 O   0  0  0  0  0  0  0  0  0  0  0  0
  150.1956  142.4067  157.9164 N   0  5  0  0  0  0  0  0  0  0  0  0
  151.1876  142.8566  158.7015 C   0  0  0  0  0  0  0  0  0  0  0  0
  151.0517  143.5980  159.8023 N   0  0  0  0  0  0  0  0  0  0  0  0
  152.3376  143.8210  160.2699 C   0  0  0  0  0  0  0  0  0  0  0  0
  153.2082  143.2024  159.4151 C   0  0  0  0  0  0  0  0  0  0  0  0
  152.4951  142.5931  158.4200 O   0  0  0  0  0  0  0  0  0  0  0  0
  149.8365  139.9939  154.3411 C   0  0  0  0  0  0  0  0  0  0  0  0
  146.1082  138.1329  153.3143 H   0  0  0  0  0  0  0  0  0  0  0  0
  147.3757  137.6501  152.1862 H   0  0  0  0  0  0  0  0  0  0  0  0
  146.2457  138.9236  151.7437 H   0  0  0  0  0  0  0  0  0  0  0  0
  149.0761  138.0729  153.8412 H   0  0  0  0  0  0  0  0  0  0  0  0
  147.2508  137.8235  155.3300 H   0  0  0  0  0  0  0  0  0  0  0  0
  148.5725  138.4123  156.2853 H   0  0  0  0  0  0  0  0  0  0  0  0
  146.2512  139.4586  156.7040 H   0  0  0  0  0  0  0  0  0  0  0  0
  147.5562  140.5643  156.5621 H   0  0  0  0  0  0  0  0  0  0  0  0
  145.3633  139.9598  154.5775 H   0  0  0  0  0  0  0  0  0  0  0  0
  145.8372  141.5096  155.1941 H   0  0  0  0  0  0  0  0  0  0  0  0
  146.4124  141.0904  152.7794 H   0  0  0  0  0  0  0  0  0  0  0  0
  148.4673  142.1338  152.6624 H   0  0  0  0  0  0  0  0  0  0  0  0
  147.7265  142.7970  154.0761 H   0  0  0  0  0  0  0  0  0  0  0  0
  150.2830  142.0417  153.9849 H   0  0  0  0  0  0  0  0  0  0  0  0
  148.5953  142.3416  156.1838 H   0  0  0  0  0  0  0  0  0  0  0  0
  152.5296  144.3968  161.1631 H   0  0  0  0  0  0  0  0  0  0  0  0
  154.2827  143.1060  159.3734 H   0  0  0  0  0  0  0  0  0  0  0  0
  150.4800  139.6925  155.1691 H   0  0  0  0  0  0  0  0  0  0  0  0
  150.4549  139.8829  153.4491 H   0  0  0  0  0  0  0  0  0  0  0  0
  148.3384  139.7725  152.3585 H   0  0  0  0  0  0  0  0  0  0  0  0
  1  2  1  0  0  0  0
  1 20  1  0  0  0  0
  1 21  1  0  0  0  0
  1 22  1  0  0  0  0
  2  7  1  0  0  0  0
  2  3  1  0  0  0  0
  2 39  1  0  0  0  0
  3 19  1  0  0  0  0
  3  4  1  0  0  0  0
  3 23  1  0  0  0  0
  4  5  1  0  0  0  0
  4 24  1  0  0  0  0
  4 25  1  0  0  0  0
  5  6  1  0  0  0  0
  5 26  1  0  0  0  0
  5 27  1  0  0  0  0
  6  7  1  0  0  0  0
  6 28  1  0  0  0  0
  6 29  1  0  0  0  0
  7  8  1  0  0  0  0
  7 30  1  0  0  0  0
  8  9  1  0  0  0  0
  8 31  1  0  0  0  0
  8 32  1  0  0  0  0
  9 10  1  0  0  0  0
  9 19  1  0  0  0  0
  9 33  1  0  0  0  0
 10 34  1  0  0  0  0
 10 11  1  0  0  0  0
 11 13  1  0  0  0  0
 11 12  2  0  0  0  0
 13 14  1  0  0  0  0
 14 18  1  0  0  0  0
 14 15  2  0  0  0  0
 15 16  1  0  0  0  0
 16 35  1  0  0  0  0
 16 17  2  0  0  0  0
 17 36  1  0  0  0  0
 17 18  1  0  0  0  0
 19 37  1  0  0  0  0
 19 38  1  0  0  0  0
M  CHG  1   2   1
M  CHG  1  13  -1
M  END
> <s_m_source_file>
AV-unprocessed.smi

> <i_m_source_file_index>
2226

> <i_lp_mmshare_version>
43012

> <i_f3d_flags>
0

> <s_epik_input>
W0NIMl0xW0NIMl1bQ0gyXVtDQEhdKE4oW0NIM10pW0NIXTEyKVtDSDJdW0NASF0oW0NIMl0yKVtOSF1DKD1PKVtOSF1jM25bY0hdW2NIXW8z

> <s_epik_cmdline>
J2VwaWtfcHl0aG9uJywgJy1waCcsICc3LjAnLCAnLXRuJywgJzgnLCAnLW1hJywgJzIwMCcsICctbWV0YWxfYmluZGluZycsICctaW1hZScsICc8aW5maWxlLm1hZT4nLCAnLW9tYWUnLCAnPG91dGZpbGUubWFlPic=

> <r_lp_tautomer_probability>
0.107061

> <r_epik_Ionization_Penalty>
10.5612

> <r_epik_Ionization_Penalty_Charging>
7.48913

> <r_epik_Ionization_Penalty_Neutral>
3.07202

> <r_epik_State_Penalty>
5.6431

> <r_epik_Charging_Adjusted_Penalty>
13.1322

> <i_epik_Tot_Q>
0

> <i_epik_Tot_abs_Q>
2

> <r_epik_Metal_State_Penalty>
1.58163

> <b_epik_Metal_Only>
1

> <s_lp_Force_Field>
OPLS_2005

> <r_lp_Energy>
26.2411

> <b_lp_Chiralities_Consistent>
1

> <s_lp_Variant>
AV-unprocessed.smi:2226-17

> <Gold.Version>
5.8.1

> <Gold.Id.Protein>
6NUR|6NUR_protein|mol2

> <Gold.PLP.Fitness>
33.7379

> <Gold.PLP.PLP>
-31.0549

> <Gold.PLP.part.hbond>
-2.2520

> <Gold.PLP.part.metal>
0.0000

> <Gold.PLP.part.buried>
-1.5986

> <Gold.PLP.part.nonpolar>
-26.5676

> <Gold.PLP.part.repulsive>
0.2141

> <Gold.PLP.ligand.clash>
0.0000

> <Gold.PLP.ligand.torsion>
0.1852

> <Gold.PLP.Chemscore.Hbond>
1.0000

> <Gold.PLP.Chemscore.CHOScore>
0.0000

> <Gold.PLP.Chemscore.Metal>
0.0000

> <Gold.Chemscore.Hbonds>
donor molecule, donor type, donor heavy atom, donor atom, acceptor molecule, acceptor atom, score
      L1  H     2    39       P1  7957  1.00

> <Gold.PLP.Chemscore.Internal.Correction>
0.0533

> <Gold.Rescore>
     Score         DG    S(hbond)    S(metal)    S(lipo)     H(rot)  DE(clash)    DE(int)     intcor
     12.30     -14.78       1.00        0.00      72.81       1.00       0.37       2.12       ----

> <Gold.Chemscore.Fitness>
12.2959

> <Gold.Chemscore.DG>
-14.7782

> <Gold.Chemscore.ZeroCoef>
-5.4800

> <Gold.Chemscore.Hbond>
1.0000

> <Gold.Chemscore.Metal>
0.0000

> <Gold.Chemscore.Lipo>
72.8053

> <Gold.Chemscore.Internal_Hbond>
0.0000

> <Gold.Chemscore.DEClash>
0.3659

> <Gold.Chemscore.DEInternal>
2.1164

> <Gold.Chemscore.Rot>
1.0000

> <Gold.Chemscore.Internal.Correction>
   9.000000E+99

> <Gold.Chemscore.Hbonds>
donor molecule, donor type, donor heavy atom, donor atom, acceptor molecule, acceptor atom, score
      L1  H     2    39       P1  7957  1.00

> <Gold.Chemscore.Hbond.Weighted>
-3.3399

> <Gold.Chemscore.Metal.Weighted>
-0.0000

> <Gold.Chemscore.Lipo.Weighted>
-8.5182

> <Gold.Chemscore.Internal_Hbond.Weighted>
0.0000

> <Gold.Chemscore.DEClash.Weighted>
0.3659

> <Gold.Chemscore.DEInternal.Weighted>
2.1164

> <Gold.Chemscore.Rot.Weighted>
2.5600

> <Gold.Chemscore.Internal.Correction.Weighted>
   9.000000E+99

> <Gold.Protein.RotatedTorsions>
[ 6907 6896 6895 6894 ] final  -74.82 input  -60.11 | X-H torsion
[ 7974 7965 7964 7962 ] final -167.98 input  175.53 | X-H torsion
[ 8008 7997 7996 7995 ] final   66.77 input   59.86 | X-H torsion
[ 10167 10162 10161 10158 ] final  -37.27 input  -65.29 | X-H torsion
[ 10718 10713 10712 10709 ] final  -36.00 input   66.30 | X-H torsion
[ 10763 10752 10751 10750 ] final -178.98 input  -60.55 | X-H torsion
[ 11005 11000 10999 10996 ] final -116.20 input  -57.11 | X-H torsion

> <Gold.Protein.ActiveResidues>
 VAL166  LYS551  ARG553  GLY616  TRP617  ASP618  TYR619  PRO620  LYS621  CYS622 
 ASP623  PHE694  ASN695  SER759  ASP760  ASP761  ALA762  ILE779  LEU786  VAL792 
 PHE793  MET794  SER795  GLU796  ALA797  LYS798  CYS799  TRP800  GLU811  SER814 

> <Gold.Protein.RotatedAtoms>
  150.7080  134.4813  159.5471 H   0  0  0  0  0  0  0  0  0  0  0  0  # atno 6907 bound_to 6896
  152.2449  134.8188  160.0464 H   0  0  0  0  0  0  0  0  0  0  0  0  # atno 6908 bound_to 6896
  151.8956  133.3491  159.3850 H   0  0  0  0  0  0  0  0  0  0  0  0  # atno 6909 bound_to 6896
  144.7212  140.2438  143.6288 H   0  0  0  0  0  0  0  0  0  0  0  0  # atno 7974 bound_to 7965
  155.6825  140.3496  155.4861 H   0  0  0  0  0  0  0  0  0  0  0  0  # atno 8008 bound_to 7997
  155.9594  140.1134  157.0931 H   0  0  0  0  0  0  0  0  0  0  0  0  # atno 8009 bound_to 7997
  154.4140  140.1178  156.5145 H   0  0  0  0  0  0  0  0  0  0  0  0  # atno 8010 bound_to 7997
  140.7122  143.3353  151.2476 H   0  0  0  0  0  0  0  0  0  0  0  0  # atno 10167 bound_to 10162
  156.3320  130.4281  149.7864 H   0  0  0  0  0  0  0  0  0  0  0  0  # atno 10718 bound_to 10713
  154.5409  135.2806  155.1096 H   0  0  0  0  0  0  0  0  0  0  0  0  # atno 10763 bound_to 10752
  154.2580  135.6327  153.5268 H   0  0  0  0  0  0  0  0  0  0  0  0  # atno 10764 bound_to 10752
  152.9978  135.5598  154.5948 H   0  0  0  0  0  0  0  0  0  0  0  0  # atno 10765 bound_to 10752
  141.0438  133.9795  157.2951 H   0  0  0  0  0  0  0  0  0  0  0  0  # atno 11005 bound_to 11000
  145.8294  139.2079  143.1891 LP  0  0  0  0  0  0  0  0  0  0  0  0  # atno 17320 bound_to 7965
  146.0444  140.8133  142.9813 LP  0  0  0  0  0  0  0  0  0  0  0  0  # atno 17321 bound_to 7965
  139.6846  143.9795  152.2827 LP  0  0  0  0  0  0  0  0  0  0  0  0  # atno 17342 bound_to 10162
  139.9436  144.6665  150.8241 LP  0  0  0  0  0  0  0  0  0  0  0  0  # atno 17343 bound_to 10162
  156.5133  130.8182  151.3177 LP  0  0  0  0  0  0  0  0  0  0  0  0  # atno 17370 bound_to 10713
  157.7432  130.9907  150.2574 LP  0  0  0  0  0  0  0  0  0  0  0  0  # atno 17371 bound_to 10713
  139.9296  135.0200  156.8353 LP  0  0  0  0  0  0  0  0  0  0  0  0  # atno 17394 bound_to 11000
  140.6185  134.0016  155.7608 LP  0  0  0  0  0  0  0  0  0  0  0  0  # atno 17395 bound_to 11000

$$$$
