AV-unprocessed.smi:2067|AV-procd|sdf|8423|dock8
  -GOLD-   2272011113D 1   1.00000     0.00000
 Structure written by MMmdl.
 47 48  0  0  0  0  0  0  0  0  1 V2000
  145.4213  135.5431  151.3230 C   0  0  0  0  0  0  0  0  0  0  0  0
  145.6080  134.0850  150.8725 C   0  0  2  0  0  0  0  0  0  0  0  0
  144.3020  133.5338  150.2654 C   0  0  0  0  0  0  0  0  0  0  0  0
  144.4553  132.0751  149.8092 C   0  0  0  0  0  0  0  0  0  0  0  0
  144.9341  131.1849  150.9640 C   0  0  0  0  0  0  0  0  0  0  0  0
  146.2425  131.7181  151.5657 C   0  0  0  0  0  0  0  0  0  0  0  0
  146.0968  133.1838  152.0301 C   0  0  1  0  0  0  0  0  0  0  0  0
  147.3529  133.6884  152.4682 O   0  0  0  0  0  0  0  0  0  0  0  0
  147.4284  133.9817  153.8558 C   0  0  0  0  0  0  0  0  0  0  0  0
  148.8999  133.9690  154.2782 C   0  0  0  0  0  0  0  0  0  0  0  0
  149.4642  132.6330  154.1725 N   0  0  0  0  0  0  0  0  0  0  0  0
  150.5421  132.1116  154.8810 C   0  0  0  0  0  0  0  0  0  0  0  0
  151.2355  132.8620  155.7833 C   0  0  0  0  0  0  0  0  0  0  0  0
  150.9439  134.2341  156.0585 C   0  0  0  0  0  0  0  0  0  0  0  0
  150.7242  135.3516  156.2689 N   0  0  0  0  0  0  0  0  0  0  0  0
  152.3814  132.3289  156.5165 C   0  0  0  0  0  0  0  0  0  0  0  0
  153.0231  132.9719  157.3510 O   0  0  0  0  0  0  0  0  0  0  0  0
  152.7189  130.9978  156.1995 N   0  0  0  0  0  0  0  0  0  0  0  0
  153.8609  130.4421  156.8988 C   0  0  0  0  0  0  0  0  0  0  0  0
  152.0245  130.2014  155.2650 C   0  0  0  0  0  0  0  0  0  0  0  0
  152.3638  129.0394  155.0222 O   0  0  0  0  0  0  0  0  0  0  0  0
  150.9132  130.7904  154.6130 N   0  0  0  0  0  0  0  0  0  0  0  0
  150.2294  129.9160  153.6808 C   0  0  0  0  0  0  0  0  0  0  0  0
  144.6821  135.6201  152.1211 H   0  0  0  0  0  0  0  0  0  0  0  0
  145.0847  136.1690  150.4962 H   0  0  0  0  0  0  0  0  0  0  0  0
  146.3547  135.9686  151.6924 H   0  0  0  0  0  0  0  0  0  0  0  0
  146.3694  134.0754  150.0909 H   0  0  0  0  0  0  0  0  0  0  0  0
  143.4975  133.6011  150.9994 H   0  0  0  0  0  0  0  0  0  0  0  0
  143.9971  134.1489  149.4181 H   0  0  0  0  0  0  0  0  0  0  0  0
  143.5055  131.7044  149.4226 H   0  0  0  0  0  0  0  0  0  0  0  0
  145.1670  132.0215  148.9844 H   0  0  0  0  0  0  0  0  0  0  0  0
  144.1663  131.1433  151.7373 H   0  0  0  0  0  0  0  0  0  0  0  0
  145.0755  130.1626  150.6122 H   0  0  0  0  0  0  0  0  0  0  0  0
  146.5351  131.0768  152.3963 H   0  0  0  0  0  0  0  0  0  0  0  0
  147.0398  131.6465  150.8247 H   0  0  0  0  0  0  0  0  0  0  0  0
  145.3694  133.2399  152.8423 H   0  0  0  0  0  0  0  0  0  0  0  0
  147.0090  134.9702  154.0476 H   0  0  0  0  0  0  0  0  0  0  0  0
  146.8609  133.2631  154.4476 H   0  0  0  0  0  0  0  0  0  0  0  0
  149.4808  134.6602  153.6669 H   0  0  0  0  0  0  0  0  0  0  0  0
  148.9661  134.3130  155.3103 H   0  0  0  0  0  0  0  0  0  0  0  0
  148.7771  131.9495  153.8871 H   0  0  0  0  0  0  0  0  0  0  0  0
  154.0870  129.4317  156.5606 H   0  0  0  0  0  0  0  0  0  0  0  0
  153.6135  130.4318  157.9618 H   0  0  0  0  0  0  0  0  0  0  0  0
  154.7145  131.0915  156.6953 H   0  0  0  0  0  0  0  0  0  0  0  0
  150.9291  129.6899  152.8742 H   0  0  0  0  0  0  0  0  0  0  0  0
  149.3402  130.3984  153.2810 H   0  0  0  0  0  0  0  0  0  0  0  0
  149.9331  129.0169  154.2245 H   0  0  0  0  0  0  0  0  0  0  0  0
  1  2  1  0  0  0  0
  1 24  1  0  0  0  0
  1 25  1  0  0  0  0
  1 26  1  0  0  0  0
  2  7  1  0  0  0  0
  2  3  1  0  0  0  0
  2 27  1  0  0  0  0
  3  4  1  0  0  0  0
  3 28  1  0  0  0  0
  3 29  1  0  0  0  0
  4  5  1  0  0  0  0
  4 30  1  0  0  0  0
  4 31  1  0  0  0  0
  5  6  1  0  0  0  0
  5 32  1  0  0  0  0
  5 33  1  0  0  0  0
  6  7  1  0  0  0  0
  6 34  1  0  0  0  0
  6 35  1  0  0  0  0
  7  8  1  0  0  0  0
  7 36  1  0  0  0  0
  8  9  1  0  0  0  0
  9 10  1  0  0  0  0
  9 37  1  0  0  0  0
  9 38  1  0  0  0  0
 10 11  1  0  0  0  0
 10 39  1  0  0  0  0
 10 40  1  0  0  0  0
 11 12  1  0  0  0  0
 11 41  1  0  0  0  0
 12 22  1  0  0  0  0
 12 13  2  0  0  0  0
 13 14  1  0  0  0  0
 13 16  1  0  0  0  0
 14 15  3  0  0  0  0
 16 17  2  0  0  0  0
 16 18  1  0  0  0  0
 18 19  1  0  0  0  0
 18 20  1  0  0  0  0
 19 42  1  0  0  0  0
 19 43  1  0  0  0  0
 19 44  1  0  0  0  0
 20 21  2  0  0  0  0
 20 22  1  0  0  0  0
 22 23  1  0  0  0  0
 23 45  1  0  0  0  0
 23 46  1  0  0  0  0
 23 47  1  0  0  0  0
M  END
> <s_m_source_file>
AV-unprocessed.smi

> <i_m_source_file_index>
2067

> <i_lp_mmshare_version>
43012

> <i_f3d_flags>
0

> <s_epik_input>
W0NIM11bQ0BASF0xW0NIMl1bQ0gyXVtDSDJdW0NIMl1bQ0BIXTFPW0NIMl1bQ0gyXVtOSF1jMmMoQyNOKWMoPU8pbihbQ0gzXSljKD1PKW4yW0NIM10=

> <s_epik_cmdline>
J2VwaWtfcHl0aG9uJywgJy1waCcsICc3LjAnLCAnLXRuJywgJzgnLCAnLW1hJywgJzIwMCcsICctbWV0YWxfYmluZGluZycsICctaW1hZScsICc8aW5maWxlLm1hZT4nLCAnLW9tYWUnLCAnPG91dGZpbGUubWFlPic=

> <r_epik_Ionization_Penalty>
0.00056529

> <r_epik_Ionization_Penalty_Charging>
3.94678e-10

> <r_epik_Ionization_Penalty_Neutral>
0.000565289

> <r_epik_State_Penalty>
0.000354611

> <r_epik_Charging_Adjusted_Penalty>
0.000354611

> <i_epik_Tot_Q>
0

> <i_epik_Tot_abs_Q>
0

> <r_epik_Metal_State_Penalty>
-0

> <b_epik_Metal_Only>
0

> <s_lp_Force_Field>
OPLS_2005

> <r_lp_Energy>
32.0891

> <b_lp_Chiralities_Consistent>
1

> <s_lp_Variant>
AV-unprocessed.smi:2067-1

> <Gold.Version>
5.8.1

> <Gold.Id.Protein>
6NUR|6NUR_protein|mol2

> <Gold.PLP.Fitness>
39.7530

> <Gold.PLP.PLP>
-38.8371

> <Gold.PLP.part.hbond>
-1.0000

> <Gold.PLP.part.metal>
0.0000

> <Gold.PLP.part.buried>
-6.6697

> <Gold.PLP.part.nonpolar>
-32.1363

> <Gold.PLP.part.repulsive>
0.6123

> <Gold.PLP.ligand.clash>
8.7922

> <Gold.PLP.ligand.torsion>
1.0305

> <Gold.PLP.Chemscore.Hbond>
0.9920

> <Gold.PLP.Chemscore.CHOScore>
0.0000

> <Gold.PLP.Chemscore.Metal>
0.0000

> <Gold.Chemscore.Hbonds>
donor molecule, donor type, donor heavy atom, donor atom, acceptor molecule, acceptor atom, score
      P1  H  6896  6907       L1    17  0.34

> <Gold.PLP.Chemscore.Internal.Correction>
8.7932

> <Gold.Rescore>
     Score         DG    S(hbond)    S(metal)    S(lipo)     H(rot)  DE(clash)    DE(int)     intcor
      9.73     -13.30       0.97        0.00      77.66       1.76       0.08       3.49       ----

> <Gold.Chemscore.Fitness>
9.7304

> <Gold.Chemscore.DG>
-13.3025

> <Gold.Chemscore.ZeroCoef>
-5.4800

> <Gold.Chemscore.Hbond>
0.9693

> <Gold.Chemscore.Metal>
0.0000

> <Gold.Chemscore.Lipo>
77.6617

> <Gold.Chemscore.Internal_Hbond>
0.0000

> <Gold.Chemscore.DEClash>
0.0825

> <Gold.Chemscore.DEInternal>
3.4896

> <Gold.Chemscore.Rot>
1.7583

> <Gold.Chemscore.Internal.Correction>
   9.000000E+99

> <Gold.Chemscore.Hbonds>
donor molecule, donor type, donor heavy atom, donor atom, acceptor molecule, acceptor atom, score
      P1  H  6896  6907       L1    17  0.31

> <Gold.Chemscore.Hbond.Weighted>
-3.2373

> <Gold.Chemscore.Metal.Weighted>
-0.0000

> <Gold.Chemscore.Lipo.Weighted>
-9.0864

> <Gold.Chemscore.Internal_Hbond.Weighted>
0.0000

> <Gold.Chemscore.DEClash.Weighted>
0.0825

> <Gold.Chemscore.DEInternal.Weighted>
3.4896

> <Gold.Chemscore.Rot.Weighted>
4.5012

> <Gold.Chemscore.Internal.Correction.Weighted>
   9.000000E+99

> <Gold.Protein.RotatedTorsions>
[ 6907 6896 6895 6894 ] final  160.25 input  -60.11 | X-H torsion
[ 7974 7965 7964 7962 ] final   37.12 input  175.53 | X-H torsion
[ 8008 7997 7996 7995 ] final  -27.31 input   59.86 | X-H torsion
[ 10167 10162 10161 10158 ] final  -54.11 input  -65.29 | X-H torsion
[ 10718 10713 10712 10709 ] final -112.02 input   66.30 | X-H torsion
[ 10763 10752 10751 10750 ] final  -69.51 input  -60.55 | X-H torsion
[ 11005 11000 10999 10996 ] final -127.68 input  -57.11 | X-H torsion

> <Gold.Protein.ActiveResidues>
 VAL166  LYS551  ARG553  GLY616  TRP617  ASP618  TYR619  PRO620  LYS621  CYS622 
 ASP623  PHE694  ASN695  SER759  ASP760  ASP761  ALA762  ILE779  LEU786  VAL792 
 PHE793  MET794  SER795  GLU796  ALA797  LYS798  CYS799  TRP800  GLU811  SER814 

> <Gold.Protein.RotatedAtoms>
  151.9734  133.3733  159.4079 H   0  0  0  0  0  0  0  0  0  0  0  0  # atno 6907 bound_to 6896
  150.6945  134.4116  159.5173 H   0  0  0  0  0  0  0  0  0  0  0  0  # atno 6908 bound_to 6896
  152.1823  134.8743  160.0576 H   0  0  0  0  0  0  0  0  0  0  0  0  # atno 6909 bound_to 6896
  146.1161  139.5933  142.9320 H   0  0  0  0  0  0  0  0  0  0  0  0  # atno 7974 bound_to 7965
  154.4383  140.1876  156.0911 H   0  0  0  0  0  0  0  0  0  0  0  0  # atno 8008 bound_to 7997
  156.0365  140.3324  155.7170 H   0  0  0  0  0  0  0  0  0  0  0  0  # atno 8009 bound_to 7997
  155.5763  140.0617  157.2785 H   0  0  0  0  0  0  0  0  0  0  0  0  # atno 8010 bound_to 7997
  140.6448  143.2529  151.4889 H   0  0  0  0  0  0  0  0  0  0  0  0  # atno 10167 bound_to 10162
  156.0681  130.5898  150.8452 H   0  0  0  0  0  0  0  0  0  0  0  0  # atno 10718 bound_to 10713
  154.4044  135.6023  153.5916 H   0  0  0  0  0  0  0  0  0  0  0  0  # atno 10763 bound_to 10752
  152.9789  135.5914  154.4145 H   0  0  0  0  0  0  0  0  0  0  0  0  # atno 10764 bound_to 10752
  154.3948  135.2842  155.2111 H   0  0  0  0  0  0  0  0  0  0  0  0  # atno 10765 bound_to 10752
  140.9579  134.0976  157.3997 H   0  0  0  0  0  0  0  0  0  0  0  0  # atno 11005 bound_to 11000
  145.5564  141.0408  143.2250 LP  0  0  0  0  0  0  0  0  0  0  0  0  # atno 17320 bound_to 7965
  144.7554  139.7087  143.7256 LP  0  0  0  0  0  0  0  0  0  0  0  0  # atno 17321 bound_to 7965
  139.5658  144.2045  152.1763 LP  0  0  0  0  0  0  0  0  0  0  0  0  # atno 17342 bound_to 10162
  140.1326  144.5274  150.6793 LP  0  0  0  0  0  0  0  0  0  0  0  0  # atno 17343 bound_to 10162
  157.5735  131.0946  150.9381 LP  0  0  0  0  0  0  0  0  0  0  0  0  # atno 17370 bound_to 10713
  156.9592  130.5449  149.5285 LP  0  0  0  0  0  0  0  0  0  0  0  0  # atno 17371 bound_to 10713
  139.8868  135.0085  156.6523 LP  0  0  0  0  0  0  0  0  0  0  0  0  # atno 17394 bound_to 11000
  140.7509  133.8898  155.8346 LP  0  0  0  0  0  0  0  0  0  0  0  0  # atno 17395 bound_to 11000

$$$$
