AV-unprocessed.smi:157|AV-procd|sdf|1297|dock9
  -GOLD-   2262018583D 1   1.00000     0.00000
 Structure written by MMmdl.
 35 37  0  0  0  0  0  0  0  0  1 V2000
  149.8709  145.2360  158.8894 O   0  0  0  0  0  0  0  0  0  0  0  0
  151.1808  144.8139  158.5754 C   0  0  0  0  0  0  0  0  0  0  0  0
  151.6191  143.7016  159.5396 C   0  0  1  0  0  0  0  0  0  0  0  0
  152.8938  143.1987  159.1513 O   0  0  0  0  0  0  0  0  0  0  0  0
  153.5492  142.6479  160.2564 C   0  0  2  0  0  0  0  0  0  0  0  0
  153.5260  141.1522  160.1424 N   0  0  0  0  0  0  0  0  0  0  0  0
  152.9727  140.4249  159.1617 C   0  0  0  0  0  0  0  0  0  0  0  0
  153.0895  139.1165  159.3146 N   0  0  0  0  0  0  0  0  0  0  0  0
  153.7926  138.9790  160.5097 C   0  0  0  0  0  0  0  0  0  0  0  0
  154.0762  140.2304  161.0376 C   0  0  0  0  0  0  0  0  0  0  0  0
  154.7135  140.7155  162.1638 N   0  0  0  0  0  0  0  0  0  0  0  0
  155.5104  139.9182  162.8027 C   0  0  0  0  0  0  0  0  0  0  0  0
  155.7822  138.5724  162.6013 N   0  0  0  0  0  0  0  0  0  0  0  0
  154.7480  137.5674  162.4232 C   0  0  0  0  0  0  0  0  0  0  0  0
  154.0889  137.6056  161.0387 C   0  0  2  0  0  0  0  0  0  0  0  0
  154.9368  136.9748  160.1005 O   0  0  0  0  0  0  0  0  0  0  0  0
  152.7786  143.0894  161.5067 C   0  0  0  0  0  0  0  0  0  0  0  0
  151.8949  144.1938  160.9607 C   0  0  2  0  0  0  0  0  0  0  0  0
  150.7145  144.3246  161.7262 O   0  0  0  0  0  0  0  0  0  0  0  0
  150.8931  142.8861  159.5646 H   0  0  0  0  0  0  0  0  0  0  0  0
  154.6036  142.9260  160.2526 H   0  0  0  0  0  0  0  0  0  0  0  0
  153.1706  137.0188  161.0781 H   0  0  0  0  0  0  0  0  0  0  0  0
  152.4407  145.1385  160.9425 H   0  0  0  0  0  0  0  0  0  0  0  0
  149.3694  145.2791  158.0897 H   0  0  0  0  0  0  0  0  0  0  0  0
  151.2375  144.4849  157.5374 H   0  0  0  0  0  0  0  0  0  0  0  0
  151.8363  145.6793  158.6772 H   0  0  0  0  0  0  0  0  0  0  0  0
  152.4660  140.8605  158.3132 H   0  0  0  0  0  0  0  0  0  0  0  0
  156.0762  140.3180  163.6454 H   0  0  0  0  0  0  0  0  0  0  0  0
  156.6050  138.1777  163.0338 H   0  0  0  0  0  0  0  0  0  0  0  0
  155.1528  136.5769  162.6332 H   0  0  0  0  0  0  0  0  0  0  0  0
  153.9847  137.7507  163.1810 H   0  0  0  0  0  0  0  0  0  0  0  0
  155.5941  136.4900  160.5766 H   0  0  0  0  0  0  0  0  0  0  0  0
  152.1805  142.2589  161.8871 H   0  0  0  0  0  0  0  0  0  0  0  0
  153.4588  143.4236  162.2907 H   0  0  0  0  0  0  0  0  0  0  0  0
  150.8865  144.9132  162.4454 H   0  0  0  0  0  0  0  0  0  0  0  0
  1  2  1  0  0  0  0
  1 24  1  0  0  0  0
  2  3  1  0  0  0  0
  2 25  1  0  0  0  0
  2 26  1  0  0  0  0
  3 20  1  0  0  0  0
  3 18  1  0  0  0  0
  3  4  1  0  0  0  0
  4  5  1  0  0  0  0
  5 21  1  0  0  0  0
  5  6  1  0  0  0  0
  5 17  1  0  0  0  0
  6 10  1  0  0  0  0
  6  7  1  0  0  0  0
  7  8  2  0  0  0  0
  7 27  1  0  0  0  0
  8  9  1  0  0  0  0
  9 15  1  0  0  0  0
  9 10  2  0  0  0  0
 10 11  1  0  0  0  0
 11 12  2  0  0  0  0
 12 13  1  0  0  0  0
 12 28  1  0  0  0  0
 13 14  1  0  0  0  0
 13 29  1  0  0  0  0
 14 15  1  0  0  0  0
 14 30  1  0  0  0  0
 14 31  1  0  0  0  0
 15 22  1  0  0  0  0
 15 16  1  0  0  0  0
 16 32  1  0  0  0  0
 17 18  1  0  0  0  0
 17 33  1  0  0  0  0
 17 34  1  0  0  0  0
 18 23  1  0  0  0  0
 18 19  1  0  0  0  0
 19 35  1  0  0  0  0
M  END
> <s_m_source_file>
AV-unprocessed.smi

> <i_m_source_file_index>
157

> <i_lp_mmshare_version>
43012

> <i_f3d_flags>
0

> <s_epik_input>
W09IXVtDSDJdW0NASF0xT1tDQEhdKFtDSDJdW0NAQEhdMVtPSF0pbihbY0hdbjIpYyhjMjMpTj1bQ0hdW05IXVtDSDJdW0NASF0zW09IXQ==

> <s_epik_cmdline>
J2VwaWtfcHl0aG9uJywgJy1waCcsICc3LjAnLCAnLXRuJywgJzgnLCAnLW1hJywgJzIwMCcsICctbWV0YWxfYmluZGluZycsICctaW1hZScsICc8aW5maWxlLm1hZT4nLCAnLW9tYWUnLCAnPG91dGZpbGUubWFlPic=

> <r_lp_tautomer_probability>
1

> <r_epik_Ionization_Penalty>
0.0357149

> <r_epik_Ionization_Penalty_Charging>
0.0355056

> <r_epik_Ionization_Penalty_Neutral>
0.000209255

> <r_epik_State_Penalty>
0.0296046

> <r_epik_Charging_Adjusted_Penalty>
0.0651102

> <i_epik_Tot_Q>
0

> <i_epik_Tot_abs_Q>
0

> <r_epik_Metal_State_Penalty>
3.03559e-05

> <b_epik_Metal_Only>
0

> <s_epik_Chemistry_Notes>
This compound has an imine and may undergo hydrolysis. This compound contains an acetal/aminal-like group ( X-CH(R)-Y where X, Y are N, S, or O) that may be acid/base labile, releasing an aldehyde.

> <s_lp_Force_Field>
OPLS_2005

> <r_lp_Energy>
44.0158

> <b_lp_Chiralities_Consistent>
1

> <s_lp_Variant>
AV-unprocessed.smi:157-7

> <Gold.Version>
5.8.1

> <Gold.Id.Protein>
6NUR|6NUR_protein|mol2

> <Gold.PLP.Fitness>
43.2359

> <Gold.PLP.PLP>
-40.3147

> <Gold.PLP.part.hbond>
-4.1032

> <Gold.PLP.part.metal>
0.0000

> <Gold.PLP.part.buried>
-6.3894

> <Gold.PLP.part.nonpolar>
-29.3916

> <Gold.PLP.part.repulsive>
0.0000

> <Gold.PLP.ligand.clash>
0.0000

> <Gold.PLP.ligand.torsion>
0.0490

> <Gold.PLP.Chemscore.Hbond>
1.0000

> <Gold.PLP.Chemscore.CHOScore>
0.0000

> <Gold.PLP.Chemscore.Metal>
0.0000

> <Gold.Chemscore.Hbonds>
donor molecule, donor type, donor heavy atom, donor atom, acceptor molecule, acceptor atom, score
      L1  H     1    24       P1  8029  0.93

> <Gold.PLP.Chemscore.Internal.Correction>
0.0191

> <Gold.Rescore>
     Score         DG    S(hbond)    S(metal)    S(lipo)     H(rot)  DE(clash)    DE(int)     intcor
      4.83      -6.60       0.85        0.00      64.82       3.64       1.72       0.05       ----

> <Gold.Chemscore.Fitness>
4.8300

> <Gold.Chemscore.DG>
-6.5989

> <Gold.Chemscore.ZeroCoef>
-5.4800

> <Gold.Chemscore.Hbond>
0.8516

> <Gold.Chemscore.Metal>
0.0000

> <Gold.Chemscore.Lipo>
64.8151

> <Gold.Chemscore.Internal_Hbond>
0.0000

> <Gold.Chemscore.DEClash>
1.7175

> <Gold.Chemscore.DEInternal>
0.0514

> <Gold.Chemscore.Rot>
3.6362

> <Gold.Chemscore.Internal.Correction>
   9.000000E+99

> <Gold.Chemscore.Hbonds>
donor molecule, donor type, donor heavy atom, donor atom, acceptor molecule, acceptor atom, score
      L1  H     1    24       P1  8029  0.36

> <Gold.Chemscore.Hbond.Weighted>
-2.8443

> <Gold.Chemscore.Metal.Weighted>
-0.0000

> <Gold.Chemscore.Lipo.Weighted>
-7.5834

> <Gold.Chemscore.Internal_Hbond.Weighted>
0.0000

> <Gold.Chemscore.DEClash.Weighted>
1.7175

> <Gold.Chemscore.DEInternal.Weighted>
0.0514

> <Gold.Chemscore.Rot.Weighted>
9.3087

> <Gold.Chemscore.Internal.Correction.Weighted>
   9.000000E+99

> <Gold.Protein.RotatedTorsions>
[ 6907 6896 6895 6894 ] final  -80.10 input  -60.11 | X-H torsion
[ 7974 7965 7964 7962 ] final  135.23 input  175.53 | X-H torsion
[ 8008 7997 7996 7995 ] final -143.89 input   59.86 | X-H torsion
[ 10167 10162 10161 10158 ] final  165.07 input  -65.29 | X-H torsion
[ 10718 10713 10712 10709 ] final  126.37 input   66.30 | X-H torsion
[ 10763 10752 10751 10750 ] final   68.39 input  -60.55 | X-H torsion
[ 11005 11000 10999 10996 ] final -173.88 input  -57.11 | X-H torsion

> <Gold.Protein.ActiveResidues>
 VAL166  LYS551  ARG553  GLY616  TRP617  ASP618  TYR619  PRO620  LYS621  CYS622 
 ASP623  PHE694  ASN695  SER759  ASP760  ASP761  ALA762  ILE779  LEU786  VAL792 
 PHE793  MET794  SER795  GLU796  ALA797  LYS798  CYS799  TRP800  GLU811  SER814 

> <Gold.Protein.RotatedAtoms>
  150.6936  134.4020  159.5123 H   0  0  0  0  0  0  0  0  0  0  0  0  # atno 6907 bound_to 6896
  152.1792  134.8765  160.0537 H   0  0  0  0  0  0  0  0  0  0  0  0  # atno 6908 bound_to 6896
  151.9762  133.3707  159.4127 H   0  0  0  0  0  0  0  0  0  0  0  0  # atno 6909 bound_to 6896
  144.9684  139.4633  143.5445 H   0  0  0  0  0  0  0  0  0  0  0  0  # atno 7974 bound_to 7965
  155.5181  140.0589  157.2912 H   0  0  0  0  0  0  0  0  0  0  0  0  # atno 8008 bound_to 7997
  154.4527  140.1957  156.0416 H   0  0  0  0  0  0  0  0  0  0  0  0  # atno 8009 bound_to 7997
  156.0738  140.3256  155.7612 H   0  0  0  0  0  0  0  0  0  0  0  0  # atno 8010 bound_to 7997
  139.4899  144.4170  151.9231 H   0  0  0  0  0  0  0  0  0  0  0  0  # atno 10167 bound_to 10162
  157.5425  131.1096  150.8836 H   0  0  0  0  0  0  0  0  0  0  0  0  # atno 10718 bound_to 10713
  153.0233  135.5249  154.7126 H   0  0  0  0  0  0  0  0  0  0  0  0  # atno 10763 bound_to 10752
  154.6204  135.2888  155.0334 H   0  0  0  0  0  0  0  0  0  0  0  0  # atno 10764 bound_to 10752
  154.1323  135.6591  153.4977 H   0  0  0  0  0  0  0  0  0  0  0  0  # atno 10765 bound_to 10752
  140.4808  134.6077  157.4918 H   0  0  0  0  0  0  0  0  0  0  0  0  # atno 11005 bound_to 11000
  146.3374  139.8879  142.8813 LP  0  0  0  0  0  0  0  0  0  0  0  0  # atno 17320 bound_to 7965
  145.2596  141.0072  143.3834 LP  0  0  0  0  0  0  0  0  0  0  0  0  # atno 17321 bound_to 7965
  140.3613  144.2969  150.5933 LP  0  0  0  0  0  0  0  0  0  0  0  0  # atno 17342 bound_to 10162
  140.5400  143.2225  151.8100 LP  0  0  0  0  0  0  0  0  0  0  0  0  # atno 17343 bound_to 10162
  156.9385  130.5375  149.5280 LP  0  0  0  0  0  0  0  0  0  0  0  0  # atno 17370 bound_to 10713
  156.0508  130.5578  150.8985 LP  0  0  0  0  0  0  0  0  0  0  0  0  # atno 17371 bound_to 10713
  139.9827  134.7110  155.9829 LP  0  0  0  0  0  0  0  0  0  0  0  0  # atno 17394 bound_to 11000
  141.1532  133.6546  156.4078 LP  0  0  0  0  0  0  0  0  0  0  0  0  # atno 17395 bound_to 11000

$$$$
