#       Name:                AV-unprocessed.smi:3207
#       Creating user name   scv26
#       Creation time:       Fri Mar 27 18:09:34 2020


#       File generated by GOLD software.
#

@<TRIPOS>MOLECULE
AV-unprocessed.smi:3207
    37    38     1
SMALL
NO_CHARGES


@<TRIPOS>ATOM
      1 ****        -0.7488  -2.5523  -2.1139 C.3            1 S1                 0.0000
      2 ****        -0.3111  -1.7448  -0.8831 C.3            1 S1                 0.0000
      3 ****         1.1136  -1.7107  -0.8769 O.3            1 S1                 0.0000
      4 ****         1.7072  -1.2482   0.3300 C.3            1 S1                 0.0000
      5 ****         3.2115  -1.3483   0.2012 C.3            1 S1                 0.0000
      6 ****         4.1109  -0.5321   1.1015 C.3            1 S1                 0.0000
      7 ****         4.0134  -0.1987  -0.3655 C.3            1 S1                 0.0000
      8 ****        -0.8801  -0.3169  -0.9199 C.2            1 S1                 0.0000
      9 ****        -0.6710   0.3955  -1.9015 O.2            1 S1                 0.0000
     10 ****        -1.5566   0.0659   0.1792 N.am           1 S1                 0.0000
     11 ****        -2.1873   1.3081   0.4613 C.ar           1 S1                 0.0000
     12 ****        -2.5232   1.5761   1.8045 C.ar           1 S1                 0.0000
     13 ****        -3.1627   2.7923   2.1162 C.ar           1 S1                 0.0000
     14 ****        -3.4815   3.7208   1.1904 N.ar           1 S1                 0.0000
     15 ****        -3.1704   3.4583  -0.0965 C.ar           1 S1                 0.0000
     16 ****        -2.5312   2.2741  -0.5154 C.ar           1 S1                 0.0000
     17 ****        -1.8356  -2.6095  -2.1836 H              1 S1                 0.0000
     18 ****        -0.3687  -3.5727  -2.0608 H              1 S1                 0.0000
     19 ****        -0.3754  -2.1105  -3.0386 H              1 S1                 0.0000
     20 ****        -0.6637  -2.2645   0.0102 H              1 S1                 0.0000
     21 ****         1.4304  -0.2153   0.5448 H              1 S1                 0.0000
     22 ****         1.3838  -1.8636   1.1704 H              1 S1                 0.0000
     23 ****         3.5671  -2.3479  -0.0409 H              1 S1                 0.0000
     24 ****         3.6398   0.1531   1.8037 H              1 S1                 0.0000
     25 ****         5.0292  -0.9997   1.4509 H              1 S1                 0.0000
     26 ****         4.8653  -0.4448  -0.9962 H              1 S1                 0.0000
     27 ****         3.4757   0.7065  -0.6414 H              1 S1                 0.0000
     28 ****        -1.5809  -0.6073   0.9311 H              1 S1                 0.0000
     29 ****        -2.2935   0.8673   2.5868 H              1 S1                 0.0000
     30 ****        -3.4269   3.0236   3.1374 H              1 S1                 0.0000
     31 ****        -3.4454   4.2135  -0.8178 H              1 S1                 0.0000
     32 ****        -2.3338   2.1322  -1.5662 H              1 S1                 0.0000
     33 ****         1.4111  -1.1084  -1.6177 LP             1 S1                 0.0000
     34 ****         1.4452  -2.6384  -1.0482 LP             1 S1                 0.0000
     35 ****        -0.1340   0.0447  -2.6687 LP             1 S1                 0.0000
     36 ****        -1.0382   1.3252  -1.9320 LP             1 S1                 0.0000
     37 ****        -3.9331   4.5747   1.4490 LP             1 S1                 0.0000
@<TRIPOS>BOND
    1    1    2 1     
    2    1   17 1     
    3    1   18 1     
    4    1   19 1     
    5    2    3 1     
    6    2    8 1     
    7    2   20 1     
    8    3    4 1     
    9    4    5 1     
   10    4   21 1     
   11    4   22 1     
   12    5    7 1     
   13    5    6 1     
   14    5   23 1     
   15    6    7 1     
   16    6   24 1     
   17    6   25 1     
   18    7   26 1     
   19    7   27 1     
   20    8    9 2     
   21    8   10 am    
   22   10   11 1     
   23   10   28 1     
   24   11   16 ar    
   25   11   12 ar    
   26   12   13 ar    
   27   12   29 1     
   28   13   14 ar    
   29   13   30 1     
   30   14   15 ar    
   31   15   16 ar    
   32   15   31 1     
   33   16   32 1     
   34    3   33 1     
   35    3   34 1     
   36    9   35 1     
   37    9   36 1     
   38   14   37 1     
@<TRIPOS>SUBSTRUCTURE
      1 S1             1
@<TRIPOS>SET
LONE_PAIRS      STATIC     ATOMS    <user>   **** ""
5 33 34 35 36 37
DONOR_HYDROGENS      STATIC     ATOMS    <user>   **** ""
1 28
ATOM$BLUE        STATIC     ATOMS    COLORGROUP SYSTEM
5 33 34 35 36 37
ATOM$RED        STATIC     ATOMS    COLORGROUP SYSTEM
1 28
