#       Name:                AV-unprocessed.smi:287
#       Creating user name   scv26
#       Creation time:       Thu Mar 26 21:59:08 2020


#       File generated by GOLD software.
#

@<TRIPOS>MOLECULE
AV-unprocessed.smi:287
    70    73     1
SMALL
NO_CHARGES


@<TRIPOS>ATOM
      1 ****         0.3650   4.9885   3.9697 C.3            1 S1                 0.0000
      2 ****        -0.0503   4.9059   2.5410 C.2            1 S1                 0.0000
      3 ****        -0.6545   3.9420   1.7876 C.2            1 S1                 0.0000
      4 ****        -0.7823   4.4547   0.4619 C.2            1 S1                 0.0000
      5 ****        -1.4015   3.7283  -0.7247 C.3            1 S1                 0.0000
      6 ****        -2.9343   3.7518  -0.6058 C.3            1 S1                 0.0000
      7 ****        -1.1104   4.3502  -1.9613 O.3            1 S1                 0.0000
      8 ****        -0.9014   2.2715  -0.8566 C.3            1 S1                 0.0000
      9 ****         0.5402   2.1481  -0.6823 N.pl3          1 S1                 0.0000
     10 ****         1.1252   0.9358  -0.5936 C.ar           1 S1                 0.0000
     11 ****         2.4367   0.9449  -0.2545 N.ar           1 S1                 0.0000
     12 ****         3.1076  -0.2037  -0.1304 C.ar           1 S1                 0.0000
     13 ****         2.6646  -1.4508  -0.2995 N.ar           1 S1                 0.0000
     14 ****         1.3462  -1.4667  -0.6488 C.ar           1 S1                 0.0000
     15 ****         0.5052  -0.3299  -0.8159 C.ar           1 S1                 0.0000
     16 ****        -0.7714  -0.7560  -1.1710 N.2            1 S1                 0.0000
     17 ****        -0.6841  -2.0585  -1.2039 C.2            1 S1                 0.0000
     18 ****         0.5586  -2.5670  -0.8994 N.pl3          1 S1                 0.0000
     19 ****         1.0047  -3.9907  -0.8285 C.3            1 S1                 0.0000
     20 ****         0.1191  -4.7772  -1.5492 O.3            1 S1                 0.0000
     21 ****         0.3054  -6.1201  -1.1260 C.3            1 S1                 0.0000
     22 ****        -0.9586  -6.9352  -1.4378 C.3            1 S1                 0.0000
     23 ****        -0.7196  -8.3103  -1.2246 O.3            1 S1                 0.0000
     24 ****         0.6498  -6.0219   0.3752 C.3            1 S1                 0.0000
     25 ****         1.7748  -6.8313   0.6564 O.3            1 S1                 0.0000
     26 ****         0.9930  -4.5483   0.6013 C.3            1 S1                 0.0000
     27 ****         0.0283  -3.9280   1.4330 O.3            1 S1                 0.0000
     28 ****        -0.2495   5.7201   0.5229 C.2            1 S1                 0.0000
     29 ****        -0.0722   6.8197  -0.4717 C.3            1 S1                 0.0000
     30 ****         0.2005   5.9993   1.7782 O.3            1 S1                 0.0000
     31 ****         1.9917  -4.0141  -1.2939 H              1 S1                 0.0000
     32 ****         1.1528  -6.5115  -1.6935 H              1 S1                 0.0000
     33 ****        -0.1845  -6.3372   1.0041 H              1 S1                 0.0000
     34 ****         1.9773  -4.3986   1.0477 H              1 S1                 0.0000
     35 ****         0.3060   4.0112   4.4491 H              1 S1                 0.0000
     36 ****        -0.2784   5.6752   4.5201 H              1 S1                 0.0000
     37 ****         1.3921   5.3442   4.0547 H              1 S1                 0.0000
     38 ****        -0.9657   2.9718   2.1454 H              1 S1                 0.0000
     39 ****        -3.2669   3.2586   0.3085 H              1 S1                 0.0000
     40 ****        -3.4093   3.2403  -1.4440 H              1 S1                 0.0000
     41 ****        -3.3149   4.7739  -0.5836 H              1 S1                 0.0000
     42 ****        -1.5183   3.8494  -2.6511 H              1 S1                 0.0000
     43 ****        -1.3724   1.6723  -0.0762 H              1 S1                 0.0000
     44 ****        -1.2067   1.8439  -1.8124 H              1 S1                 0.0000
     45 ****         1.0347   3.0137  -0.5208 H              1 S1                 0.0000
     46 ****         4.1478  -0.1095   0.1452 H              1 S1                 0.0000
     47 ****        -1.5305  -2.6851  -1.4458 H              1 S1                 0.0000
     48 ****        -1.7996  -6.6062  -0.8266 H              1 S1                 0.0000
     49 ****        -1.2450  -6.7980  -2.4808 H              1 S1                 0.0000
     50 ****        -0.4607  -8.4347  -0.3242 H              1 S1                 0.0000
     51 ****         1.9856  -6.7428   1.5736 H              1 S1                 0.0000
     52 ****         0.2106  -3.0007   1.4582 H              1 S1                 0.0000
     53 ****        -1.0227   7.0702  -0.9425 H              1 S1                 0.0000
     54 ****         0.6269   6.5239  -1.2538 H              1 S1                 0.0000
     55 ****         0.3155   7.7224   0.0010 H              1 S1                 0.0000
     56 ****        -0.1207   4.3749  -2.1020 LP             1 S1                 0.0000
     57 ****        -1.4707   5.2831  -1.9631 LP             1 S1                 0.0000
     58 ****         2.9044   1.8146  -0.0965 LP             1 S1                 0.0000
     59 ****         3.2274  -2.2694  -0.1848 LP             1 S1                 0.0000
     60 ****        -1.5751  -0.1913  -1.3588 LP             1 S1                 0.0000
     61 ****         0.3089  -4.6974  -2.5278 LP             1 S1                 0.0000
     62 ****        -0.8209  -4.4884  -1.3674 LP             1 S1                 0.0000
     63 ****         0.0107  -8.6235  -1.8317 LP             1 S1                 0.0000
     64 ****        -1.5534  -8.8301  -1.4104 LP             1 S1                 0.0000
     65 ****         2.5517  -6.5339   0.1014 LP             1 S1                 0.0000
     66 ****         1.5635  -7.7865   0.4494 LP             1 S1                 0.0000
     67 ****         0.0828  -4.3085   2.3561 LP             1 S1                 0.0000
     68 ****        -0.8875  -4.0826   1.0622 LP             1 S1                 0.0000
     69 ****         1.1827   6.1858   1.7575 LP             1 S1                 0.0000
     70 ****        -0.2819   6.7937   2.1473 LP             1 S1                 0.0000
@<TRIPOS>BOND
    1    1    2 1     
    2    1   35 1     
    3    1   36 1     
    4    1   37 1     
    5    2   30 1     
    6    2    3 2     
    7    3    4 1     
    8    3   38 1     
    9    4    5 1     
   10    4   28 2     
   11    5    6 1     
   12    5    7 1     
   13    5    8 1     
   14    6   39 1     
   15    6   40 1     
   16    6   41 1     
   17    7   42 1     
   18    8    9 1     
   19    8   43 1     
   20    8   44 1     
   21    9   10 1     
   22    9   45 1     
   23   10   15 ar    
   24   10   11 ar    
   25   11   12 ar    
   26   12   13 ar    
   27   12   46 1     
   28   13   14 ar    
   29   14   18 1     
   30   14   15 ar    
   31   15   16 1     
   32   16   17 2     
   33   17   18 1     
   34   17   47 1     
   35   18   19 1     
   36   19   31 1     
   37   19   26 1     
   38   19   20 1     
   39   20   21 1     
   40   21   32 1     
   41   21   22 1     
   42   21   24 1     
   43   22   23 1     
   44   22   48 1     
   45   22   49 1     
   46   23   50 1     
   47   24   33 1     
   48   24   25 1     
   49   24   26 1     
   50   25   51 1     
   51   26   34 1     
   52   26   27 1     
   53   27   52 1     
   54   28   29 1     
   55   28   30 1     
   56   29   53 1     
   57   29   54 1     
   58   29   55 1     
   59    7   56 1     
   60    7   57 1     
   61   11   58 1     
   62   13   59 1     
   63   16   60 1     
   64   20   61 1     
   65   20   62 1     
   66   23   63 1     
   67   23   64 1     
   68   25   65 1     
   69   25   66 1     
   70   27   67 1     
   71   27   68 1     
   72   30   69 1     
   73   30   70 1     
@<TRIPOS>SUBSTRUCTURE
      1 S1             1
@<TRIPOS>SET
LONE_PAIRS      STATIC     ATOMS    <user>   **** ""
15 56 57 58 59 60 61 62 63 64 65 66 67 68 69 70
DONOR_HYDROGENS      STATIC     ATOMS    <user>   **** ""
5 42 45 50 51 52
ATOM$BLUE        STATIC     ATOMS    COLORGROUP SYSTEM
15 56 57 58 59 60 61 62 63 64 65 66 67 68 69 70
ATOM$RED        STATIC     ATOMS    COLORGROUP SYSTEM
5 42 45 50 51 52
