AV-unprocessed.smi:3311|AV-procd|sdf|12721|dock5
  -GOLD-   2272019 63D 1   1.00000     0.00000
 Structure written by MMmdl.
 44 45  0  0  0  0  0  0  0  0  2 V2000
  146.9833  140.6379  153.7476 C   0  0  0  0  0  0  0  0  0  0  0  0
  146.9826  139.1023  153.6380 C   0  0  2  0  0  0  0  0  0  0  0  0
  148.3791  138.6367  153.4880 N   0  3  0  0  0  0  0  0  0  0  0  0
  149.1387  138.5227  154.7525 C   0  0  0  0  0  0  0  0  0  0  0  0
  150.3121  139.5298  154.8252 C   0  0  0  0  0  0  0  0  0  0  0  0
  150.0917  140.4894  153.8082 O   0  0  0  0  0  0  0  0  0  0  0  0
  150.4102  140.2710  156.1813 C   0  0  0  0  0  0  0  0  0  0  0  0
  150.8722  139.3465  157.3214 C   0  0  0  0  0  0  0  0  0  0  0  0
  152.2129  138.6761  156.9829 C   0  0  0  0  0  0  0  0  0  0  0  0
  152.1432  137.9257  155.6437 C   0  0  0  0  0  0  0  0  0  0  0  0
  151.6641  138.8483  154.5079 C   0  0  0  0  0  0  0  0  0  0  0  0
  146.1034  138.5779  152.4701 C   0  0  1  0  0  0  0  0  0  0  0  0
  146.6562  138.9557  151.0825 C   0  0  0  0  0  0  0  0  0  0  0  0
  145.8975  137.1368  152.5458 N   0  0  0  0  0  0  0  0  0  0  0  0
  145.2127  136.3232  151.6664 C   0  0  0  0  0  0  0  0  0  0  0  0
  145.2908  135.0468  152.1452 C   0  0  0  0  0  0  0  0  0  0  0  0
  146.0576  135.1785  153.3364 C   0  0  0  0  0  0  0  0  0  0  0  0
  146.4208  136.4285  153.5723 N   0  0  0  0  0  0  0  0  0  0  0  0
  145.9893  141.0306  153.9630 H   0  0  0  0  0  0  0  0  0  0  0  0
  147.3314  141.1012  152.8239 H   0  0  0  0  0  0  0  0  0  0  0  0
  147.6381  140.9712  154.5534 H   0  0  0  0  0  0  0  0  0  0  0  0
  146.5797  138.7169  154.5764 H   0  0  0  0  0  0  0  0  0  0  0  0
  148.3724  137.7329  153.0365 H   0  0  0  0  0  0  0  0  0  0  0  0
  148.4475  138.6737  155.5817 H   0  0  0  0  0  0  0  0  0  0  0  0
  149.5187  137.5046  154.8488 H   0  0  0  0  0  0  0  0  0  0  0  0
  149.7883  140.0419  153.0323 H   0  0  0  0  0  0  0  0  0  0  0  0
  151.1261  141.0901  156.0940 H   0  0  0  0  0  0  0  0  0  0  0  0
  149.4603  140.7376  156.4439 H   0  0  0  0  0  0  0  0  0  0  0  0
  150.9708  139.9198  158.2437 H   0  0  0  0  0  0  0  0  0  0  0  0
  150.1169  138.5850  157.5167 H   0  0  0  0  0  0  0  0  0  0  0  0
  152.9962  139.4337  156.9340 H   0  0  0  0  0  0  0  0  0  0  0  0
  152.4978  137.9894  157.7804 H   0  0  0  0  0  0  0  0  0  0  0  0
  153.1254  137.5207  155.3982 H   0  0  0  0  0  0  0  0  0  0  0  0
  151.4779  137.0672  155.7373 H   0  0  0  0  0  0  0  0  0  0  0  0
  151.5978  138.2846  153.5762 H   0  0  0  0  0  0  0  0  0  0  0  0
  152.4268  139.6113  154.3429 H   0  0  0  0  0  0  0  0  0  0  0  0
  145.1176  139.0367  152.5630 H   0  0  0  0  0  0  0  0  0  0  0  0
  146.6778  140.0361  150.9402 H   0  0  0  0  0  0  0  0  0  0  0  0
  146.0344  138.5409  150.2886 H   0  0  0  0  0  0  0  0  0  0  0  0
  147.6702  138.5805  150.9391 H   0  0  0  0  0  0  0  0  0  0  0  0
  144.7309  136.7148  150.7827 H   0  0  0  0  0  0  0  0  0  0  0  0
  144.8664  134.1542  151.7102 H   0  0  0  0  0  0  0  0  0  0  0  0
  146.3591  134.4086  154.0313 H   0  0  0  0  0  0  0  0  0  0  0  0
  148.8682  139.2876  152.8904 H   0  0  0  0  0  0  0  0  0  0  0  0
  1  2  1  0  0  0  0
  1 19  1  0  0  0  0
  1 20  1  0  0  0  0
  1 21  1  0  0  0  0
  2  3  1  0  0  0  0
  2 12  1  0  0  0  0
  2 22  1  0  0  0  0
  3  4  1  0  0  0  0
  3 23  1  0  0  0  0
  3 44  1  0  0  0  0
  4  5  1  0  0  0  0
  4 24  1  0  0  0  0
  4 25  1  0  0  0  0
  5 11  1  0  0  0  0
  5  6  1  0  0  0  0
  5  7  1  0  0  0  0
  6 26  1  0  0  0  0
  7  8  1  0  0  0  0
  7 27  1  0  0  0  0
  7 28  1  0  0  0  0
  8  9  1  0  0  0  0
  8 29  1  0  0  0  0
  8 30  1  0  0  0  0
  9 10  1  0  0  0  0
  9 31  1  0  0  0  0
  9 32  1  0  0  0  0
 10 11  1  0  0  0  0
 10 33  1  0  0  0  0
 10 34  1  0  0  0  0
 11 35  1  0  0  0  0
 11 36  1  0  0  0  0
 12 13  1  0  0  0  0
 12 14  1  0  0  0  0
 12 37  1  0  0  0  0
 13 38  1  0  0  0  0
 13 39  1  0  0  0  0
 13 40  1  0  0  0  0
 14 18  1  0  0  0  0
 14 15  1  0  0  0  0
 15 16  2  0  0  0  0
 15 41  1  0  0  0  0
 16 17  1  0  0  0  0
 16 42  1  0  0  0  0
 17 18  2  0  0  0  0
 17 43  1  0  0  0  0
M  CHG  1   3   1
M  END
> <s_m_source_file>
AV-unprocessed.smi

> <i_m_source_file_index>
3311

> <i_lp_mmshare_version>
43012

> <i_f3d_flags>
0

> <s_epik_input>
bjFbY0hdW2NIXVtjSF1uMVtDQEBIXShbQ0gzXSlbQ0BIXShbQ0gzXSlbTkhdW0NIMl1DMihbT0hdKVtDSDJdW0NIMl1bQ0gyXVtDSDJdW0NIMl0y

> <s_epik_cmdline>
J2VwaWtfcHl0aG9uJywgJy1waCcsICc3LjAnLCAnLXRuJywgJzgnLCAnLW1hJywgJzIwMCcsICctbWV0YWxfYmluZGluZycsICctaW1hZScsICc8aW5maWxlLm1hZT4nLCAnLW9tYWUnLCAnPG91dGZpbGUubWFlPic=

> <r_lp_tautomer_probability>
1

> <r_epik_Ionization_Penalty>
0.0141403

> <r_epik_Ionization_Penalty_Charging>
0.0141276

> <r_epik_Ionization_Penalty_Neutral>
1.27139e-05

> <r_epik_State_Penalty>
0.0110334

> <r_epik_Charging_Adjusted_Penalty>
0.025161

> <i_epik_Tot_Q>
1

> <i_epik_Tot_abs_Q>
1

> <r_epik_Metal_State_Penalty>
0.0110573

> <b_epik_Metal_Only>
0

> <s_lp_Force_Field>
OPLS_2005

> <r_lp_Energy>
22.4961

> <b_lp_Chiralities_Consistent>
1

> <s_lp_Variant>
AV-unprocessed.smi:3311-3

> <Gold.Version>
5.8.1

> <Gold.Id.Protein>
6NUR|6NUR_protein|mol2

> <Gold.PLP.Fitness>
41.6610

> <Gold.PLP.PLP>
-27.9147

> <Gold.PLP.part.hbond>
-3.5821

> <Gold.PLP.part.metal>
0.0000

> <Gold.PLP.part.buried>
3.4408

> <Gold.PLP.part.nonpolar>
-26.7639

> <Gold.PLP.part.repulsive>
1.2247

> <Gold.PLP.ligand.clash>
0.0000

> <Gold.PLP.ligand.torsion>
1.7175

> <Gold.PLP.Chemscore.Hbond>
4.6800

> <Gold.PLP.Chemscore.CHOScore>
1.0000

> <Gold.PLP.Chemscore.Metal>
0.0000

> <Gold.Chemscore.Hbonds>
donor molecule, donor type, donor heavy atom, donor atom, acceptor molecule, acceptor atom, score
      L1  H     3    23       P1  7948  2.00
      L1  H     3    44       P1  7957  1.00
      L1  H     6    26       P1  7957  0.96
      P1  H  7989  7998       L1     6  0.67
      L1  C    15    41       P1 10171  1.00

> <Gold.PLP.Chemscore.Internal.Correction>
0.1412

> <Gold.Rescore>
     Score         DG    S(hbond)    S(metal)    S(lipo)     H(rot)  DE(clash)    DE(int)     intcor
     15.98     -19.50       2.88        0.00      84.39       2.14       1.51       2.01       ----

> <Gold.Chemscore.Fitness>
15.9807

> <Gold.Chemscore.DG>
-19.4957

> <Gold.Chemscore.ZeroCoef>
-5.4800

> <Gold.Chemscore.Hbond>
2.8822

> <Gold.Chemscore.Metal>
0.0000

> <Gold.Chemscore.Lipo>
84.3918

> <Gold.Chemscore.Internal_Hbond>
0.0000

> <Gold.Chemscore.DEClash>
1.5076

> <Gold.Chemscore.DEInternal>
2.0074

> <Gold.Chemscore.Rot>
2.1424

> <Gold.Chemscore.Internal.Correction>
   9.000000E+99

> <Gold.Chemscore.Hbonds>
donor molecule, donor type, donor heavy atom, donor atom, acceptor molecule, acceptor atom, score
      L1  H     3    23       P1  7948  0.97
      L1  H     3    44       P1  7957  0.93
      L1  H     6    26       P1  7957  0.92
      P1  H  7989  7998       L1     6  0.07

> <Gold.Chemscore.Hbond.Weighted>
-9.6265

> <Gold.Chemscore.Metal.Weighted>
-0.0000

> <Gold.Chemscore.Lipo.Weighted>
-9.8738

> <Gold.Chemscore.Internal_Hbond.Weighted>
0.0000

> <Gold.Chemscore.DEClash.Weighted>
1.5076

> <Gold.Chemscore.DEInternal.Weighted>
2.0074

> <Gold.Chemscore.Rot.Weighted>
5.4846

> <Gold.Chemscore.Internal.Correction.Weighted>
   9.000000E+99

> <Gold.Protein.RotatedTorsions>
[ 6907 6896 6895 6894 ] final   57.94 input  -60.11 | X-H torsion
[ 7974 7965 7964 7962 ] final   81.89 input  175.53 | X-H torsion
[ 8008 7997 7996 7995 ] final -132.34 input   59.86 | X-H torsion
[ 10167 10162 10161 10158 ] final  137.91 input  -65.29 | X-H torsion
[ 10718 10713 10712 10709 ] final   59.78 input   66.30 | X-H torsion
[ 10763 10752 10751 10750 ] final -101.33 input  -60.55 | X-H torsion
[ 11005 11000 10999 10996 ] final   41.12 input  -57.11 | X-H torsion

> <Gold.Protein.ActiveResidues>
 VAL166  LYS551  ARG553  GLY616  TRP617  ASP618  TYR619  PRO620  LYS621  CYS622 
 ASP623  PHE694  ASN695  SER759  ASP760  ASP761  ALA762  ILE779  LEU786  VAL792 
 PHE793  MET794  SER795  GLU796  ALA797  LYS798  CYS799  TRP800  GLU811  SER814 

> <Gold.Protein.RotatedAtoms>
  152.3778  134.6637  160.0153 H   0  0  0  0  0  0  0  0  0  0  0  0  # atno 6907 bound_to 6896
  151.6910  133.3305  159.3251 H   0  0  0  0  0  0  0  0  0  0  0  0  # atno 6908 bound_to 6896
  150.7723  134.6634  159.6397 H   0  0  0  0  0  0  0  0  0  0  0  0  # atno 6909 bound_to 6896
  145.6323  139.2407  143.2078 H   0  0  0  0  0  0  0  0  0  0  0  0  # atno 7974 bound_to 7965
  155.3273  140.0465  157.3041 H   0  0  0  0  0  0  0  0  0  0  0  0  # atno 8008 bound_to 7997
  154.5347  140.2268  155.8709 H   0  0  0  0  0  0  0  0  0  0  0  0  # atno 8009 bound_to 7997
  156.1823  140.3071  155.9179 H   0  0  0  0  0  0  0  0  0  0  0  0  # atno 8010 bound_to 7997
  139.5128  144.6383  151.5637 H   0  0  0  0  0  0  0  0  0  0  0  0  # atno 10167 bound_to 10162
  157.5702  130.8901  149.9254 H   0  0  0  0  0  0  0  0  0  0  0  0  # atno 10718 bound_to 10713
  154.7649  135.4902  153.9535 H   0  0  0  0  0  0  0  0  0  0  0  0  # atno 10763 bound_to 10752
  153.1296  135.6750  153.9208 H   0  0  0  0  0  0  0  0  0  0  0  0  # atno 10764 bound_to 10752
  153.8915  135.3120  155.3426 H   0  0  0  0  0  0  0  0  0  0  0  0  # atno 10765 bound_to 10752
  140.1865  134.4040  155.8170 H   0  0  0  0  0  0  0  0  0  0  0  0  # atno 11005 bound_to 11000
  146.1347  140.7138  142.9395 LP  0  0  0  0  0  0  0  0  0  0  0  0  # atno 17320 bound_to 7965
  144.7189  140.4305  143.7023 LP  0  0  0  0  0  0  0  0  0  0  0  0  # atno 17321 bound_to 7965
  140.6141  143.9382  150.6475 LP  0  0  0  0  0  0  0  0  0  0  0  0  # atno 17342 bound_to 10162
  140.2634  143.3507  152.1302 LP  0  0  0  0  0  0  0  0  0  0  0  0  # atno 17343 bound_to 10162
  156.0748  130.3680  150.0701 LP  0  0  0  0  0  0  0  0  0  0  0  0  # atno 17370 bound_to 10713
  156.8855  130.9571  151.3594 LP  0  0  0  0  0  0  0  0  0  0  0  0  # atno 17371 bound_to 10713
  141.2225  133.7025  156.8021 LP  0  0  0  0  0  0  0  0  0  0  0  0  # atno 17394 bound_to 11000
  140.2208  134.8758  157.3375 LP  0  0  0  0  0  0  0  0  0  0  0  0  # atno 17395 bound_to 11000

$$$$
