AV-unprocessed.smi:506|AV-procd|sdf|2751|dock1
  -GOLD-   2262023213D 1   1.00000     0.00000
 Structure written by MMmdl.
 41 43  0  0  0  0  0  0  0  0  2 V2000
  147.1053  134.2647  162.4197 C   0  0  0  0  0  0  0  0  0  0  0  0
  147.4515  133.7956  161.1249 O   0  0  0  0  0  0  0  0  0  0  0  0
  147.9087  134.7134  160.2037 C   0  0  0  0  0  0  0  0  0  0  0  0
  148.2515  134.2253  158.9276 C   0  0  0  0  0  0  0  0  0  0  0  0
  148.7228  135.0947  157.9261 C   0  0  0  0  0  0  0  0  0  0  0  0
  148.8631  136.4739  158.1760 C   0  0  0  0  0  0  0  0  0  0  0  0
  149.3250  137.2549  157.1385 O   0  0  0  0  0  0  0  0  0  0  0  0
  149.3177  138.6652  157.3049 C   0  0  0  0  0  0  0  0  0  0  0  0
  150.7469  139.1847  157.1089 C   0  0  0  0  0  0  0  0  0  0  0  0
  150.7855  140.6484  156.9997 N   0  0  0  0  0  0  0  0  0  0  0  0
  150.2513  141.4757  156.0561 C   0  0  0  0  0  0  0  0  0  0  0  0
  149.4629  141.0611  154.8546 C   0  0  0  0  0  0  0  0  0  0  0  0
  150.1749  140.2009  153.9899 O   0  0  0  0  0  0  0  0  0  0  0  0
  150.5704  142.7522  156.4159 N   0  3  0  0  0  0  0  0  0  0  0  0
  151.3076  142.7410  157.6005 C   0  0  0  0  0  0  0  0  0  0  0  0
  151.8484  143.7824  158.3484 C   0  0  0  0  0  0  0  0  0  0  0  0
  152.5461  143.4236  159.5206 C   0  0  0  0  0  0  0  0  0  0  0  0
  152.6836  142.0752  159.9098 C   0  0  0  0  0  0  0  0  0  0  0  0
  152.1316  141.0278  159.1429 C   0  0  0  0  0  0  0  0  0  0  0  0
  151.4461  141.3914  157.9840 C   0  0  0  0  0  0  0  0  0  0  0  0
  148.5247  136.9691  159.4595 C   0  0  0  0  0  0  0  0  0  0  0  0
  148.0522  136.0990  160.4615 C   0  0  0  0  0  0  0  0  0  0  0  0
  146.7603  133.4268  163.0254 H   0  0  0  0  0  0  0  0  0  0  0  0
  146.2962  134.9954  162.3759 H   0  0  0  0  0  0  0  0  0  0  0  0
  147.9644  134.7060  162.9269 H   0  0  0  0  0  0  0  0  0  0  0  0
  148.1499  133.1717  158.7125 H   0  0  0  0  0  0  0  0  0  0  0  0
  148.9769  134.6980  156.9542 H   0  0  0  0  0  0  0  0  0  0  0  0
  148.6569  139.1299  156.5713 H   0  0  0  0  0  0  0  0  0  0  0  0
  148.9583  138.9244  158.3020 H   0  0  0  0  0  0  0  0  0  0  0  0
  151.3971  138.8709  157.9262 H   0  0  0  0  0  0  0  0  0  0  0  0
  151.1757  138.7704  156.1959 H   0  0  0  0  0  0  0  0  0  0  0  0
  148.5510  140.5606  155.1813 H   0  0  0  0  0  0  0  0  0  0  0  0
  149.1645  141.9498  154.2977 H   0  0  0  0  0  0  0  0  0  0  0  0
  149.7241  140.1694  153.1596 H   0  0  0  0  0  0  0  0  0  0  0  0
  151.7425  144.8161  158.0533 H   0  0  0  0  0  0  0  0  0  0  0  0
  152.9838  144.1979  160.1340 H   0  0  0  0  0  0  0  0  0  0  0  0
  153.2234  141.8390  160.8154 H   0  0  0  0  0  0  0  0  0  0  0  0
  152.2409  139.9984  159.4507 H   0  0  0  0  0  0  0  0  0  0  0  0
  148.6174  138.0164  159.7028 H   0  0  0  0  0  0  0  0  0  0  0  0
  147.8046  136.5222  161.4232 H   0  0  0  0  0  0  0  0  0  0  0  0
  150.2954  143.5690  155.8854 H   0  0  0  0  0  0  0  0  0  0  0  0
  1  2  1  0  0  0  0
  1 23  1  0  0  0  0
  1 24  1  0  0  0  0
  1 25  1  0  0  0  0
  2  3  1  0  0  0  0
  3 22  1  0  0  0  0
  3  4  2  0  0  0  0
  4  5  1  0  0  0  0
  4 26  1  0  0  0  0
  5  6  2  0  0  0  0
  5 27  1  0  0  0  0
  6  7  1  0  0  0  0
  6 21  1  0  0  0  0
  7  8  1  0  0  0  0
  8  9  1  0  0  0  0
  8 28  1  0  0  0  0
  8 29  1  0  0  0  0
  9 10  1  0  0  0  0
  9 30  1  0  0  0  0
  9 31  1  0  0  0  0
 10 20  1  0  0  0  0
 10 11  1  0  0  0  0
 11 12  1  0  0  0  0
 11 14  2  0  0  0  0
 12 13  1  0  0  0  0
 12 32  1  0  0  0  0
 12 33  1  0  0  0  0
 13 34  1  0  0  0  0
 14 15  1  0  0  0  0
 14 41  1  0  0  0  0
 15 20  2  0  0  0  0
 15 16  1  0  0  0  0
 16 17  2  0  0  0  0
 16 35  1  0  0  0  0
 17 18  1  0  0  0  0
 17 36  1  0  0  0  0
 18 19  2  0  0  0  0
 18 37  1  0  0  0  0
 19 20  1  0  0  0  0
 19 38  1  0  0  0  0
 21 22  2  0  0  0  0
 21 39  1  0  0  0  0
 22 40  1  0  0  0  0
M  CHG  1  14   1
M  END
> <s_m_source_file>
AV-unprocessed.smi

> <i_m_source_file_index>
506

> <i_lp_mmshare_version>
43012

> <i_f3d_flags>
0

> <s_epik_input>
W0NIM11PYzFbY0hdW2NIXWMoW2NIXVtjSF0xKU9bQ0gyXVtDSDJdbihjKG4yKVtDSDJdW09IXSljKGMyMylbY0hdW2NIXVtjSF1bY0hdMw==

> <s_epik_cmdline>
J2VwaWtfcHl0aG9uJywgJy1waCcsICc3LjAnLCAnLXRuJywgJzgnLCAnLW1hJywgJzIwMCcsICctbWV0YWxfYmluZGluZycsICctaW1hZScsICc8aW5maWxlLm1hZT4nLCAnLW9tYWUnLCAnPG91dGZpbGUubWFlPic=

> <r_lp_tautomer_probability>
1

> <r_epik_Ionization_Penalty>
1.51027

> <r_epik_Ionization_Penalty_Charging>
1.50942

> <r_epik_Ionization_Penalty_Neutral>
0.000855784

> <r_epik_State_Penalty>
1.60032

> <r_epik_Charging_Adjusted_Penalty>
3.10973

> <i_epik_Tot_Q>
1

> <i_epik_Tot_abs_Q>
1

> <r_epik_Metal_State_Penalty>
5.65193

> <b_epik_Metal_Only>
0

> <s_lp_Force_Field>
OPLS_2005

> <r_lp_Energy>
22.2088

> <b_lp_Chiralities_Consistent>
1

> <s_lp_Variant>
AV-unprocessed.smi:506-2

> <Gold.Version>
5.8.1

> <Gold.Id.Protein>
6NUR|6NUR_protein|mol2

> <Gold.PLP.Fitness>
53.8539

> <Gold.PLP.PLP>
-43.8037

> <Gold.PLP.part.hbond>
-3.0000

> <Gold.PLP.part.metal>
0.0000

> <Gold.PLP.part.buried>
-6.9059

> <Gold.PLP.part.nonpolar>
-35.3959

> <Gold.PLP.part.repulsive>
0.0826

> <Gold.PLP.ligand.clash>
0.0000

> <Gold.PLP.ligand.torsion>
0.4813

> <Gold.PLP.Chemscore.Hbond>
3.6400

> <Gold.PLP.Chemscore.CHOScore>
0.0000

> <Gold.PLP.Chemscore.Metal>
0.0000

> <Gold.Chemscore.Hbonds>
donor molecule, donor type, donor heavy atom, donor atom, acceptor molecule, acceptor atom, score
      L1  H    13    34       P1  7957  1.00
      L1  H    14    41       P1  8028  1.70
      P1  H  7989  7998       L1    13  0.85

> <Gold.PLP.Chemscore.Internal.Correction>
0.0928

> <Gold.Rescore>
     Score         DG    S(hbond)    S(metal)    S(lipo)     H(rot)  DE(clash)    DE(int)     intcor
     18.70     -19.28       2.30        0.00     107.94       2.54       0.02       0.55       ----

> <Gold.Chemscore.Fitness>
18.7017

> <Gold.Chemscore.DG>
-19.2800

> <Gold.Chemscore.ZeroCoef>
-5.4800

> <Gold.Chemscore.Hbond>
2.2999

> <Gold.Chemscore.Metal>
0.0000

> <Gold.Chemscore.Lipo>
107.9362

> <Gold.Chemscore.Internal_Hbond>
0.0000

> <Gold.Chemscore.DEClash>
0.0234

> <Gold.Chemscore.DEInternal>
0.5549

> <Gold.Chemscore.Rot>
2.5431

> <Gold.Chemscore.Internal.Correction>
   9.000000E+99

> <Gold.Chemscore.Hbonds>
donor molecule, donor type, donor heavy atom, donor atom, acceptor molecule, acceptor atom, score
      L1  H    13    34       P1  7957  0.94
      L1  H    14    41       P1  8028  0.83
      P1  H  7989  7998       L1    13  0.16

> <Gold.Chemscore.Hbond.Weighted>
-7.6818

> <Gold.Chemscore.Metal.Weighted>
-0.0000

> <Gold.Chemscore.Lipo.Weighted>
-12.6285

> <Gold.Chemscore.Internal_Hbond.Weighted>
0.0000

> <Gold.Chemscore.DEClash.Weighted>
0.0234

> <Gold.Chemscore.DEInternal.Weighted>
0.5549

> <Gold.Chemscore.Rot.Weighted>
6.5103

> <Gold.Chemscore.Internal.Correction.Weighted>
   9.000000E+99

> <Gold.Protein.RotatedTorsions>
[ 6907 6896 6895 6894 ] final   -0.99 input  -60.11 | X-H torsion
[ 7974 7965 7964 7962 ] final  142.42 input  175.53 | X-H torsion
[ 8008 7997 7996 7995 ] final  114.04 input   59.86 | X-H torsion
[ 10167 10162 10161 10158 ] final -165.99 input  -65.29 | X-H torsion
[ 10718 10713 10712 10709 ] final  -62.32 input   66.30 | X-H torsion
[ 10763 10752 10751 10750 ] final   85.71 input  -60.55 | X-H torsion
[ 11005 11000 10999 10996 ] final   47.45 input  -57.11 | X-H torsion

> <Gold.Protein.ActiveResidues>
 VAL166  LYS551  ARG553  GLY616  TRP617  ASP618  TYR619  PRO620  LYS621  CYS622 
 ASP623  PHE694  ASN695  SER759  ASP760  ASP761  ALA762  ILE779  LEU786  VAL792 
 PHE793  MET794  SER795  GLU796  ALA797  LYS798  CYS799  TRP800  GLU811  SER814 

> <Gold.Protein.RotatedAtoms>
  151.5532  135.1067  159.9954 H   0  0  0  0  0  0  0  0  0  0  0  0  # atno 6907 bound_to 6896
  152.4481  133.7572  159.6737 H   0  0  0  0  0  0  0  0  0  0  0  0  # atno 6908 bound_to 6896
  150.8402  133.7881  159.3088 H   0  0  0  0  0  0  0  0  0  0  0  0  # atno 6909 bound_to 6896
  144.9009  139.5424  143.5754 H   0  0  0  0  0  0  0  0  0  0  0  0  # atno 7974 bound_to 7965
  156.2296  140.2967  156.0155 H   0  0  0  0  0  0  0  0  0  0  0  0  # atno 8008 bound_to 7997
  155.2261  140.0417  157.2972 H   0  0  0  0  0  0  0  0  0  0  0  0  # atno 8009 bound_to 7997
  154.5973  140.2417  155.7846 H   0  0  0  0  0  0  0  0  0  0  0  0  # atno 8010 bound_to 7997
  139.6145  144.0748  152.1874 H   0  0  0  0  0  0  0  0  0  0  0  0  # atno 10167 bound_to 10162
  156.0863  130.4208  150.1118 H   0  0  0  0  0  0  0  0  0  0  0  0  # atno 10718 bound_to 10713
  153.1501  135.4607  154.9624 H   0  0  0  0  0  0  0  0  0  0  0  0  # atno 10763 bound_to 10752
  154.7818  135.3191  154.7976 H   0  0  0  0  0  0  0  0  0  0  0  0  # atno 10764 bound_to 10752
  153.8483  135.6924  153.4849 H   0  0  0  0  0  0  0  0  0  0  0  0  # atno 10765 bound_to 10752
  140.1278  134.4745  155.8545 H   0  0  0  0  0  0  0  0  0  0  0  0  # atno 11005 bound_to 11000
  146.3108  139.7738  142.9021 LP  0  0  0  0  0  0  0  0  0  0  0  0  # atno 17320 bound_to 7965
  145.3618  141.0327  143.3280 LP  0  0  0  0  0  0  0  0  0  0  0  0  # atno 17321 bound_to 7965
  140.0375  144.6033  150.7438 LP  0  0  0  0  0  0  0  0  0  0  0  0  # atno 17342 bound_to 10162
  140.7341  143.2725  151.3843 LP  0  0  0  0  0  0  0  0  0  0  0  0  # atno 17343 bound_to 10162
  156.9138  130.9660  151.3559 LP  0  0  0  0  0  0  0  0  0  0  0  0  # atno 17370 bound_to 10713
  157.5998  130.8504  149.8785 LP  0  0  0  0  0  0  0  0  0  0  0  0  # atno 17371 bound_to 10713
  141.2164  133.6784  156.7012 LP  0  0  0  0  0  0  0  0  0  0  0  0  # atno 17394 bound_to 11000
  140.2881  134.8263  157.3992 LP  0  0  0  0  0  0  0  0  0  0  0  0  # atno 17395 bound_to 11000

$$$$
