AV-unprocessed.smi:1323|AV-procd|sdf|5467|dock4
  -GOLD-   22720 5 33D 1   1.00000     0.00000
 Structure written by MMmdl.
 45 46  0  0  0  0  0  0  0  0  1 V2000
  154.0010  140.8079  160.2722 C   0  0  0  0  0  0  0  0  0  0  0  0
  153.5582  142.2735  160.3926 C   0  0  2  0  0  0  0  0  0  0  0  0
  152.7565  142.5256  161.6853 C   0  0  0  0  0  0  0  0  0  0  0  0
  152.3757  144.0070  161.8316 C   0  0  0  0  0  0  0  0  0  0  0  0
  151.6043  144.5086  160.6017 C   0  0  0  0  0  0  0  0  0  0  0  0
  152.3905  144.2520  159.3045 C   0  0  0  0  0  0  0  0  0  0  0  0
  152.7780  142.7695  159.1513 C   0  0  2  0  0  0  0  0  0  0  0  0
  151.5734  142.0286  159.0027 O   0  0  0  0  0  0  0  0  0  0  0  0
  150.6983  142.5010  157.9908 C   0  0  0  0  0  0  0  0  0  0  0  0
  149.3627  142.9040  158.6323 C   0  0  0  0  0  0  0  0  0  0  0  0
  148.2630  142.8345  157.6747 N   0  0  0  0  0  0  0  0  0  0  0  0
  147.0390  142.3485  157.9342 C   0  0  0  0  0  0  0  0  0  0  0  0
  146.7037  141.9192  159.0390 O   0  0  0  0  0  0  0  0  0  0  0  0
  146.0396  142.3788  156.7692 C   0  0  0  0  0  0  0  0  0  0  0  0
  146.4634  141.5557  155.6242 N   0  0  0  0  0  0  0  0  0  0  0  0
  147.4810  142.0792  154.8017 C   0  0  0  0  0  0  0  0  0  0  0  0
  147.9320  141.4201  153.7228 C   0  0  0  0  0  0  0  0  0  0  0  0
  147.3441  140.1388  153.4109 C   0  0  0  0  0  0  0  0  0  0  0  0
  146.3709  139.6283  154.1914 C   0  0  0  0  0  0  0  0  0  0  0  0
  145.8796  140.3430  155.3749 C   0  0  0  0  0  0  0  0  0  0  0  0
  144.9985  139.8776  156.0975 O   0  0  0  0  0  0  0  0  0  0  0  0
  153.1452  140.1343  160.2319 H   0  0  0  0  0  0  0  0  0  0  0  0
  154.6113  140.5123  161.1260 H   0  0  0  0  0  0  0  0  0  0  0  0
  154.5947  140.6494  159.3719 H   0  0  0  0  0  0  0  0  0  0  0  0
  154.4707  142.8679  160.4571 H   0  0  0  0  0  0  0  0  0  0  0  0
  151.8517  141.9171  161.6853 H   0  0  0  0  0  0  0  0  0  0  0  0
  153.3366  142.2112  162.5534 H   0  0  0  0  0  0  0  0  0  0  0  0
  151.7741  144.1482  162.7298 H   0  0  0  0  0  0  0  0  0  0  0  0
  153.2779  144.6046  161.9660 H   0  0  0  0  0  0  0  0  0  0  0  0
  150.6365  144.0079  160.5499 H   0  0  0  0  0  0  0  0  0  0  0  0
  151.3940  145.5734  160.7040 H   0  0  0  0  0  0  0  0  0  0  0  0
  151.8028  144.5740  158.4441 H   0  0  0  0  0  0  0  0  0  0  0  0
  153.2940  144.8630  159.3044 H   0  0  0  0  0  0  0  0  0  0  0  0
  153.4046  142.6735  158.2621 H   0  0  0  0  0  0  0  0  0  0  0  0
  151.1525  143.3639  157.5024 H   0  0  0  0  0  0  0  0  0  0  0  0
  150.5334  141.7441  157.2231 H   0  0  0  0  0  0  0  0  0  0  0  0
  149.1563  142.2908  159.5111 H   0  0  0  0  0  0  0  0  0  0  0  0
  149.4272  143.9337  158.9838 H   0  0  0  0  0  0  0  0  0  0  0  0
  148.4498  143.1724  156.7419 H   0  0  0  0  0  0  0  0  0  0  0  0
  145.0737  142.0355  157.1423 H   0  0  0  0  0  0  0  0  0  0  0  0
  145.8729  143.4120  156.4581 H   0  0  0  0  0  0  0  0  0  0  0  0
  147.8602  143.0462  155.0994 H   0  0  0  0  0  0  0  0  0  0  0  0
  148.7100  141.8394  153.1020 H   0  0  0  0  0  0  0  0  0  0  0  0
  147.6845  139.5883  152.5463 H   0  0  0  0  0  0  0  0  0  0  0  0
  145.9407  138.6696  153.9414 H   0  0  0  0  0  0  0  0  0  0  0  0
  1  2  1  0  0  0  0
  1 22  1  0  0  0  0
  1 23  1  0  0  0  0
  1 24  1  0  0  0  0
  2  7  1  0  0  0  0
  2  3  1  0  0  0  0
  2 25  1  0  0  0  0
  3  4  1  0  0  0  0
  3 26  1  0  0  0  0
  3 27  1  0  0  0  0
  4  5  1  0  0  0  0
  4 28  1  0  0  0  0
  4 29  1  0  0  0  0
  5  6  1  0  0  0  0
  5 30  1  0  0  0  0
  5 31  1  0  0  0  0
  6  7  1  0  0  0  0
  6 32  1  0  0  0  0
  6 33  1  0  0  0  0
  7  8  1  0  0  0  0
  7 34  1  0  0  0  0
  8  9  1  0  0  0  0
  9 10  1  0  0  0  0
  9 35  1  0  0  0  0
  9 36  1  0  0  0  0
 10 11  1  0  0  0  0
 10 37  1  0  0  0  0
 10 38  1  0  0  0  0
 11 12  1  0  0  0  0
 11 39  1  0  0  0  0
 12 13  2  0  0  0  0
 12 14  1  0  0  0  0
 14 15  1  0  0  0  0
 14 40  1  0  0  0  0
 14 41  1  0  0  0  0
 15 20  1  0  0  0  0
 15 16  1  0  0  0  0
 16 17  2  0  0  0  0
 16 42  1  0  0  0  0
 17 18  1  0  0  0  0
 17 43  1  0  0  0  0
 18 19  2  0  0  0  0
 18 44  1  0  0  0  0
 19 20  1  0  0  0  0
 19 45  1  0  0  0  0
 20 21  2  0  0  0  0
M  END
> <s_m_source_file>
AV-unprocessed.smi

> <i_m_source_file_index>
1323

> <i_lp_mmshare_version>
43012

> <i_f3d_flags>
0

> <s_epik_input>
W0NIM11bQ0BASF0xW0NIMl1bQ0gyXVtDSDJdW0NIMl1bQ0BIXTFPW0NIMl1bQ0gyXVtOSF1DKD1PKVtDSDJdbjJbY0hdW2NIXVtjSF1bY0hdYzI9Tw==

> <s_epik_cmdline>
J2VwaWtfcHl0aG9uJywgJy1waCcsICc3LjAnLCAnLXRuJywgJzgnLCAnLW1hJywgJzIwMCcsICctbWV0YWxfYmluZGluZycsICctaW1hZScsICc8aW5maWxlLm1hZT4nLCAnLW9tYWUnLCAnPG91dGZpbGUubWFlPic=

> <r_lp_tautomer_probability>
1

> <r_epik_Ionization_Penalty>
4.02412e-07

> <r_epik_Ionization_Penalty_Charging>
3.74552e-07

> <r_epik_Ionization_Penalty_Neutral>
2.78599e-08

> <r_epik_State_Penalty>
-0

> <r_epik_Charging_Adjusted_Penalty>
3.74552e-07

> <i_epik_Tot_Q>
0

> <i_epik_Tot_abs_Q>
0

> <r_epik_Metal_State_Penalty>
-0

> <b_epik_Metal_Only>
0

> <s_lp_Force_Field>
OPLS_2005

> <r_lp_Energy>
19.1209

> <b_lp_Chiralities_Consistent>
1

> <s_lp_Variant>
AV-unprocessed.smi:1323-3

> <Gold.Version>
5.8.1

> <Gold.Id.Protein>
6NUR|6NUR_protein|mol2

> <Gold.PLP.Fitness>
50.2804

> <Gold.PLP.PLP>
-44.0585

> <Gold.PLP.part.hbond>
-2.7174

> <Gold.PLP.part.metal>
0.0000

> <Gold.PLP.part.buried>
-4.6894

> <Gold.PLP.part.nonpolar>
-37.6775

> <Gold.PLP.part.repulsive>
0.1461

> <Gold.PLP.ligand.clash>
0.0000

> <Gold.PLP.ligand.torsion>
0.8747

> <Gold.PLP.Chemscore.Hbond>
1.6409

> <Gold.PLP.Chemscore.CHOScore>
1.0000

> <Gold.PLP.Chemscore.Metal>
0.0000

> <Gold.Chemscore.Hbonds>
donor molecule, donor type, donor heavy atom, donor atom, acceptor molecule, acceptor atom, score
      L1  H    11    39       P1  8028  0.90
      P1  H  6934  6946       L1    13  0.77
      L1  C    16    42       P1  8028  0.95

> <Gold.PLP.Chemscore.Internal.Correction>
0.0487

> <Gold.Rescore>
     Score         DG    S(hbond)    S(metal)    S(lipo)     H(rot)  DE(clash)    DE(int)     intcor
     17.72     -18.87       1.23        0.00     121.74       1.94       0.13       1.02       ----

> <Gold.Chemscore.Fitness>
17.7222

> <Gold.Chemscore.DG>
-18.8694

> <Gold.Chemscore.ZeroCoef>
-5.4800

> <Gold.Chemscore.Hbond>
1.2311

> <Gold.Chemscore.Metal>
0.0000

> <Gold.Chemscore.Lipo>
121.7402

> <Gold.Chemscore.Internal_Hbond>
0.0000

> <Gold.Chemscore.DEClash>
0.1262

> <Gold.Chemscore.DEInternal>
1.0210

> <Gold.Chemscore.Rot>
1.9398

> <Gold.Chemscore.Internal.Correction>
   9.000000E+99

> <Gold.Chemscore.Hbonds>
donor molecule, donor type, donor heavy atom, donor atom, acceptor molecule, acceptor atom, score
      L1  H    11    39       P1  8028  0.44
      P1  H  6934  6946       L1    13  0.74

> <Gold.Chemscore.Hbond.Weighted>
-4.1117

> <Gold.Chemscore.Metal.Weighted>
-0.0000

> <Gold.Chemscore.Lipo.Weighted>
-14.2436

> <Gold.Chemscore.Internal_Hbond.Weighted>
0.0000

> <Gold.Chemscore.DEClash.Weighted>
0.1262

> <Gold.Chemscore.DEInternal.Weighted>
1.0210

> <Gold.Chemscore.Rot.Weighted>
4.9659

> <Gold.Chemscore.Internal.Correction.Weighted>
   9.000000E+99

> <Gold.Protein.RotatedTorsions>
[ 6907 6896 6895 6894 ] final  131.04 input  -60.11 | X-H torsion
[ 7974 7965 7964 7962 ] final   23.26 input  175.53 | X-H torsion
[ 8008 7997 7996 7995 ] final   36.77 input   59.86 | X-H torsion
[ 10167 10162 10161 10158 ] final  127.55 input  -65.29 | X-H torsion
[ 10718 10713 10712 10709 ] final -166.16 input   66.30 | X-H torsion
[ 10763 10752 10751 10750 ] final   -0.32 input  -60.55 | X-H torsion
[ 11005 11000 10999 10996 ] final -145.42 input  -57.11 | X-H torsion

> <Gold.Protein.ActiveResidues>
 VAL166  LYS551  ARG553  GLY616  TRP617  ASP618  TYR619  PRO620  LYS621  CYS622 
 ASP623  PHE694  ASN695  SER759  ASP760  ASP761  ALA762  ILE779  LEU786  VAL792 
 PHE793  MET794  SER795  GLU796  ALA797  LYS798  CYS799  TRP800  GLU811  SER814 

> <Gold.Protein.RotatedAtoms>
  152.3466  133.6129  159.5914 H   0  0  0  0  0  0  0  0  0  0  0  0  # atno 6907 bound_to 6896
  150.7511  133.9639  159.3533 H   0  0  0  0  0  0  0  0  0  0  0  0  # atno 6908 bound_to 6896
  151.7497  135.0836  160.0380 H   0  0  0  0  0  0  0  0  0  0  0  0  # atno 6909 bound_to 6896
  146.1992  139.7769  142.8774 H   0  0  0  0  0  0  0  0  0  0  0  0  # atno 7974 bound_to 7965
  155.1928  140.3309  155.4356 H   0  0  0  0  0  0  0  0  0  0  0  0  # atno 8008 bound_to 7997
  156.2436  140.1907  156.6970 H   0  0  0  0  0  0  0  0  0  0  0  0  # atno 8009 bound_to 7997
  154.6194  140.0597  156.9582 H   0  0  0  0  0  0  0  0  0  0  0  0  # atno 8010 bound_to 7997
  139.5572  144.6857  151.4147 H   0  0  0  0  0  0  0  0  0  0  0  0  # atno 10167 bound_to 10162
  156.6639  130.9057  151.3033 H   0  0  0  0  0  0  0  0  0  0  0  0  # atno 10718 bound_to 10713
  153.3303  135.6974  153.6953 H   0  0  0  0  0  0  0  0  0  0  0  0  # atno 10763 bound_to 10752
  153.5758  135.3507  155.2856 H   0  0  0  0  0  0  0  0  0  0  0  0  # atno 10764 bound_to 10752
  154.8617  135.4283  154.2491 H   0  0  0  0  0  0  0  0  0  0  0  0  # atno 10765 bound_to 10752
  140.7924  134.2952  157.5008 H   0  0  0  0  0  0  0  0  0  0  0  0  # atno 11005 bound_to 11000
  145.3541  141.0313  143.3322 LP  0  0  0  0  0  0  0  0  0  0  0  0  # atno 17320 bound_to 7965
  144.8646  139.5127  143.6796 LP  0  0  0  0  0  0  0  0  0  0  0  0  # atno 17321 bound_to 7965
  140.6847  143.8001  150.7169 LP  0  0  0  0  0  0  0  0  0  0  0  0  # atno 17342 bound_to 10162
  140.1465  143.4395  152.2159 LP  0  0  0  0  0  0  0  0  0  0  0  0  # atno 17343 bound_to 10162
  157.7100  130.9429  150.1058 LP  0  0  0  0  0  0  0  0  0  0  0  0  # atno 17370 bound_to 10713
  156.1990  130.3659  149.8813 LP  0  0  0  0  0  0  0  0  0  0  0  0  # atno 17371 bound_to 10713
  139.8730  134.9382  156.3709 LP  0  0  0  0  0  0  0  0  0  0  0  0  # atno 17394 bound_to 11000
  140.9376  133.7536  156.0104 LP  0  0  0  0  0  0  0  0  0  0  0  0  # atno 17395 bound_to 11000

$$$$
