AV-unprocessed.smi:781|AV-procd|sdf|3712|dock8
  -GOLD-   22720 1133D 1   1.00000     0.00000
 Structure written by MMmdl.
 38 40  0  0  0  0  0  0  0  0  1 V2000
  140.0887  138.9245  153.7129 C   0  0  0  0  0  0  0  0  0  0  0  0
  140.5072  137.4946  153.7519 C   0  0  0  0  0  0  0  0  0  0  0  0
  141.6430  136.8468  153.3546 C   0  0  0  0  0  0  0  0  0  0  0  0
  141.3710  135.4928  153.6863 C   0  0  0  0  0  0  0  0  0  0  0  0
  142.3239  134.4753  153.4278 N   0  0  0  0  0  0  0  0  0  0  0  0
  143.3461  134.5127  152.5563 C   0  0  0  0  0  0  0  0  0  0  0  0
  143.6288  135.4686  151.8331 O   0  0  0  0  0  0  0  0  0  0  0  0
  144.0387  133.3655  152.5704 N   0  0  0  0  0  0  0  0  0  0  0  0
  145.2059  133.0857  151.7376 C   0  0  1  0  0  0  0  0  0  0  0  0
  146.4274  132.5666  152.5380 C   0  0  1  0  0  0  0  0  0  0  0  0
  146.0434  131.3825  153.4511 C   0  0  0  0  0  0  0  0  0  0  0  0
  145.7700  130.2534  152.4400 C   0  0  0  0  0  0  0  0  0  0  0  0
  146.0644  130.9291  151.0861 C   0  0  2  0  0  0  0  0  0  0  0  0
  147.2214  131.8515  151.4525 C   0  0  0  0  0  0  0  0  0  0  0  0
  144.9282  131.9223  150.7488 C   0  0  2  0  0  0  0  0  0  0  0  0
  144.9360  132.3595  149.2713 C   0  0  0  0  0  0  0  0  0  0  0  0
  144.0626  133.4529  149.0835 O   0  0  0  0  0  0  0  0  0  0  0  0
  140.1779  135.3288  154.2374 N   0  0  0  0  0  0  0  0  0  0  0  0
  139.6186  136.6113  154.2828 O   0  0  0  0  0  0  0  0  0  0  0  0
  140.6747  139.4821  152.9821 H   0  0  0  0  0  0  0  0  0  0  0  0
  140.2276  139.3933  154.6869 H   0  0  0  0  0  0  0  0  0  0  0  0
  139.0366  139.0140  153.4409 H   0  0  0  0  0  0  0  0  0  0  0  0
  142.5241  137.2754  152.9004 H   0  0  0  0  0  0  0  0  0  0  0  0
  142.2137  133.6261  153.9614 H   0  0  0  0  0  0  0  0  0  0  0  0
  143.7377  132.6306  153.1934 H   0  0  0  0  0  0  0  0  0  0  0  0
  145.4864  133.9880  151.1904 H   0  0  0  0  0  0  0  0  0  0  0  0
  146.9742  133.3547  153.0566 H   0  0  0  0  0  0  0  0  0  0  0  0
  146.8791  131.1150  154.0991 H   0  0  0  0  0  0  0  0  0  0  0  0
  145.1885  131.5869  154.0956 H   0  0  0  0  0  0  0  0  0  0  0  0
  146.4464  129.4151  152.6115 H   0  0  0  0  0  0  0  0  0  0  0  0
  144.7491  129.8754  152.5039 H   0  0  0  0  0  0  0  0  0  0  0  0
  146.2781  130.2161  150.2890 H   0  0  0  0  0  0  0  0  0  0  0  0
  147.5341  132.5092  150.6401 H   0  0  0  0  0  0  0  0  0  0  0  0
  148.0953  131.3196  151.8332 H   0  0  0  0  0  0  0  0  0  0  0  0
  143.9679  131.4451  150.9543 H   0  0  0  0  0  0  0  0  0  0  0  0
  145.9369  132.6376  148.9404 H   0  0  0  0  0  0  0  0  0  0  0  0
  144.6020  131.5414  148.6327 H   0  0  0  0  0  0  0  0  0  0  0  0
  144.4858  134.0824  148.5197 H   0  0  0  0  0  0  0  0  0  0  0  0
  1  2  1  0  0  0  0
  1 20  1  0  0  0  0
  1 21  1  0  0  0  0
  1 22  1  0  0  0  0
  2 19  1  0  0  0  0
  2  3  2  0  0  0  0
  3  4  1  0  0  0  0
  3 23  1  0  0  0  0
  4  5  1  0  0  0  0
  4 18  2  0  0  0  0
  5  6  1  0  0  0  0
  5 24  1  0  0  0  0
  6  7  2  0  0  0  0
  6  8  1  0  0  0  0
  8  9  1  0  0  0  0
  8 25  1  0  0  0  0
  9 15  1  0  0  0  0
  9 10  1  0  0  0  0
  9 26  1  0  0  0  0
 10 14  1  0  0  0  0
 10 11  1  0  0  0  0
 10 27  1  0  0  0  0
 11 12  1  0  0  0  0
 11 28  1  0  0  0  0
 11 29  1  0  0  0  0
 12 13  1  0  0  0  0
 12 30  1  0  0  0  0
 12 31  1  0  0  0  0
 13 14  1  0  0  0  0
 13 15  1  0  0  0  0
 13 32  1  0  0  0  0
 14 33  1  0  0  0  0
 14 34  1  0  0  0  0
 15 16  1  0  0  0  0
 15 35  1  0  0  0  0
 16 17  1  0  0  0  0
 16 36  1  0  0  0  0
 16 37  1  0  0  0  0
 17 38  1  0  0  0  0
 18 19  1  0  0  0  0
M  END
> <s_m_source_file>
AV-unprocessed.smi

> <i_m_source_file_index>
781

> <i_lp_mmshare_version>
43012

> <i_f3d_flags>
0

> <s_epik_input>
W0NIM11jMVtjSF1jKG5vMSlbTkhdQyg9TylbTkhdW0NASF0oW0NAQEhdMjMpW0NASF0oW0NIMl1bT0hdKVtDQEBIXShbQ0gyXTMpW0NIMl1bQ0gyXTI=

> <s_epik_cmdline>
J2VwaWtfcHl0aG9uJywgJy1waCcsICc3LjAnLCAnLXRuJywgJzgnLCAnLW1hJywgJzIwMCcsICctbWV0YWxfYmluZGluZycsICctaW1hZScsICc8aW5maWxlLm1hZT4nLCAnLW9tYWUnLCAnPG91dGZpbGUubWFlPic=

> <r_lp_tautomer_probability>
1

> <r_epik_Ionization_Penalty>
2.32222e-05

> <r_epik_Ionization_Penalty_Charging>
0

> <r_epik_Ionization_Penalty_Neutral>
2.32222e-05

> <r_epik_State_Penalty>
-0

> <r_epik_Charging_Adjusted_Penalty>
0

> <i_epik_Tot_Q>
0

> <i_epik_Tot_abs_Q>
0

> <r_epik_Metal_State_Penalty>
-0

> <b_epik_Metal_Only>
0

> <s_lp_Force_Field>
OPLS_2005

> <r_lp_Energy>
46.3898

> <b_lp_Chiralities_Consistent>
1

> <s_lp_Variant>
AV-unprocessed.smi:781-6

> <Gold.Version>
5.8.1

> <Gold.Id.Protein>
6NUR|6NUR_protein|mol2

> <Gold.PLP.Fitness>
40.0430

> <Gold.PLP.PLP>
-29.1327

> <Gold.PLP.part.hbond>
-5.3583

> <Gold.PLP.part.metal>
0.0000

> <Gold.PLP.part.buried>
-0.7772

> <Gold.PLP.part.nonpolar>
-24.5304

> <Gold.PLP.part.repulsive>
0.4249

> <Gold.PLP.ligand.clash>
0.0000

> <Gold.PLP.ligand.torsion>
0.1859

> <Gold.PLP.Chemscore.Hbond>
3.7550

> <Gold.PLP.Chemscore.CHOScore>
0.0000

> <Gold.PLP.Chemscore.Metal>
0.0000

> <Gold.Chemscore.Hbonds>
donor molecule, donor type, donor heavy atom, donor atom, acceptor molecule, acceptor atom, score
      L1  H     5    24       P1 10957  0.89
      L1  H     8    25       P1 10957  0.84
      L1  H    17    38       P1  7921  1.00
      P1  H 11000 11005       L1    18  1.00

> <Gold.PLP.Chemscore.Internal.Correction>
0.0171

> <Gold.Rescore>
     Score         DG    S(hbond)    S(metal)    S(lipo)     H(rot)  DE(clash)    DE(int)     intcor
     17.14     -20.21       3.33        0.00      71.58       1.86       1.49       1.58       ----

> <Gold.Chemscore.Fitness>
17.1400

> <Gold.Chemscore.DG>
-20.2082

> <Gold.Chemscore.ZeroCoef>
-5.4800

> <Gold.Chemscore.Hbond>
3.3267

> <Gold.Chemscore.Metal>
0.0000

> <Gold.Chemscore.Lipo>
71.5833

> <Gold.Chemscore.Internal_Hbond>
0.0000

> <Gold.Chemscore.DEClash>
1.4917

> <Gold.Chemscore.DEInternal>
1.5766

> <Gold.Chemscore.Rot>
1.8587

> <Gold.Chemscore.Internal.Correction>
   9.000000E+99

> <Gold.Chemscore.Hbonds>
donor molecule, donor type, donor heavy atom, donor atom, acceptor molecule, acceptor atom, score
      L1  H     5    24       P1 10957  0.87
      L1  H     8    25       P1 10957  0.21
      L1  H    17    38       P1  7921  0.92
      P1  H 11000 11005       L1    18  0.58

> <Gold.Chemscore.Hbond.Weighted>
-11.1113

> <Gold.Chemscore.Metal.Weighted>
-0.0000

> <Gold.Chemscore.Lipo.Weighted>
-8.3752

> <Gold.Chemscore.Internal_Hbond.Weighted>
0.0000

> <Gold.Chemscore.DEClash.Weighted>
1.4917

> <Gold.Chemscore.DEInternal.Weighted>
1.5766

> <Gold.Chemscore.Rot.Weighted>
4.7583

> <Gold.Chemscore.Internal.Correction.Weighted>
   9.000000E+99

> <Gold.Protein.RotatedTorsions>
[ 6907 6896 6895 6894 ] final   96.42 input  -60.11 | X-H torsion
[ 7974 7965 7964 7962 ] final   36.52 input  175.53 | X-H torsion
[ 8008 7997 7996 7995 ] final  -74.57 input   59.86 | X-H torsion
[ 10167 10162 10161 10158 ] final  147.56 input  -65.29 | X-H torsion
[ 10718 10713 10712 10709 ] final  -38.67 input   66.30 | X-H torsion
[ 10763 10752 10751 10750 ] final  -19.58 input  -60.55 | X-H torsion
[ 11005 11000 10999 10996 ] final   60.32 input  -57.11 | X-H torsion

> <Gold.Protein.ActiveResidues>
 VAL166  LYS551  ARG553  GLY616  TRP617  ASP618  TYR619  PRO620  LYS621  CYS622 
 ASP623  PHE694  ASN695  SER759  ASP760  ASP761  ALA762  ILE779  LEU786  VAL792 
 PHE793  MET794  SER795  GLU796  ALA797  LYS798  CYS799  TRP800  GLU811  SER814 

> <Gold.Protein.RotatedAtoms>
  152.5435  134.0889  159.8267 H   0  0  0  0  0  0  0  0  0  0  0  0  # atno 6907 bound_to 6896
  151.0981  133.5257  159.2618 H   0  0  0  0  0  0  0  0  0  0  0  0  # atno 6908 bound_to 6896
  151.2022  135.0456  159.8931 H   0  0  0  0  0  0  0  0  0  0  0  0  # atno 6909 bound_to 6896
  146.1205  139.6008  142.9293 H   0  0  0  0  0  0  0  0  0  0  0  0  # atno 7974 bound_to 7965
  154.5342  140.0759  156.8398 H   0  0  0  0  0  0  0  0  0  0  0  0  # atno 8008 bound_to 7997
  155.3313  140.3402  155.4221 H   0  0  0  0  0  0  0  0  0  0  0  0  # atno 8009 bound_to 7997
  156.1811  140.1652  156.8258 H   0  0  0  0  0  0  0  0  0  0  0  0  # atno 8010 bound_to 7997
  139.4888  144.5746  151.6989 H   0  0  0  0  0  0  0  0  0  0  0  0  # atno 10167 bound_to 10162
  156.3011  130.4240  149.8142 H   0  0  0  0  0  0  0  0  0  0  0  0  # atno 10718 bound_to 10713
  153.6069  135.6997  153.5362 H   0  0  0  0  0  0  0  0  0  0  0  0  # atno 10763 bound_to 10752
  153.3049  135.4118  155.1285 H   0  0  0  0  0  0  0  0  0  0  0  0  # atno 10764 bound_to 10752
  154.8571  135.3658  154.5607 H   0  0  0  0  0  0  0  0  0  0  0  0  # atno 10765 bound_to 10752
  140.0240  134.6110  155.9599 H   0  0  0  0  0  0  0  0  0  0  0  0  # atno 11005 bound_to 11000
  145.5475  141.0416  143.2296 LP  0  0  0  0  0  0  0  0  0  0  0  0  # atno 17320 bound_to 7965
  144.7593  139.6996  143.7241 LP  0  0  0  0  0  0  0  0  0  0  0  0  # atno 17321 bound_to 7965
  140.5340  144.0685  150.6064 LP  0  0  0  0  0  0  0  0  0  0  0  0  # atno 17342 bound_to 10162
  140.3685  143.2868  152.0305 LP  0  0  0  0  0  0  0  0  0  0  0  0  # atno 17343 bound_to 10162
  156.5520  130.8346  151.3302 LP  0  0  0  0  0  0  0  0  0  0  0  0  # atno 17370 bound_to 10713
  157.7368  130.9785  150.2156 LP  0  0  0  0  0  0  0  0  0  0  0  0  # atno 17371 bound_to 10713
  141.1791  133.6544  156.4948 LP  0  0  0  0  0  0  0  0  0  0  0  0  # atno 17394 bound_to 11000
  140.4338  134.7077  157.4956 LP  0  0  0  0  0  0  0  0  0  0  0  0  # atno 17395 bound_to 11000

$$$$
