#       Name:                AV-unprocessed.smi:2692
#       Creating user name   scv26
#       Creation time:       Fri Mar 27 14:43:05 2020


#       File generated by GOLD software.
#

@<TRIPOS>MOLECULE
AV-unprocessed.smi:2692
    21    21     1
SMALL
NO_CHARGES


@<TRIPOS>ATOM
      1 ****        -1.9630   2.6783  -0.0503 N.4            1 S1                 1.0000
      2 ****        -1.4768   1.2884  -0.0756 C.3            1 S1                 0.0000
      3 ****         0.0484   1.2254   0.0919 C.3            1 S1                 0.0000
      4 ****         0.5712  -0.1978   0.0556 C.ar           1 S1                 0.0000
      5 ****         0.9131  -0.8734   1.2479 C.ar           1 S1                 0.0000
      6 ****         1.3736  -2.1430   1.1960 N.pl3          1 S1                 1.0000
      7 ****         1.5278  -2.8194   0.0371 C.ar           1 S1                 0.0000
      8 ****         1.2026  -2.1966  -1.1845 C.ar           1 S1                 0.0000
      9 ****         1.3506  -2.8681  -2.3614 O.co2          1 S1                -1.0000
     10 ****         0.7220  -0.8713  -1.1766 C.ar           1 S1                 0.0000
     11 ****        -2.9670   2.6859  -0.1622 H              1 S1                 0.0000
     12 ****        -1.5386   3.1985  -0.8051 H              1 S1                 0.0000
     13 ****        -1.9696   0.7301   0.7211 H              1 S1                 0.0000
     14 ****        -1.7760   0.8334  -1.0205 H              1 S1                 0.0000
     15 ****         0.5371   1.7951  -0.6998 H              1 S1                 0.0000
     16 ****         0.3418   1.6912   1.0339 H              1 S1                 0.0000
     17 ****         0.8341  -0.4422   2.2352 H              1 S1                 0.0000
     18 ****         1.9028  -3.8290   0.1219 H              1 S1                 0.0000
     19 ****         1.6157  -2.6131   2.0683 H              1 S1                 0.0000
     20 ****         0.4700  -0.3795  -2.1051 H              1 S1                 0.0000
     21 ****        -1.7202   3.1066   0.8315 H              1 S1                 0.0000
@<TRIPOS>BOND
    1    1    2 1     
    2    1   11 1     
    3    1   12 1     
    4    1   21 1     
    5    2    3 1     
    6    2   13 1     
    7    2   14 1     
    8    3   15 1     
    9    3   16 1     
   10    3    4 1     
   11    4    5 ar    
   12    4   10 ar    
   13    5    6 ar    
   14    5   17 1     
   15    6    7 ar    
   16    6   19 1     
   17    7    8 ar    
   18    7   18 1     
   19    8    9 ar    
   20    8   10 ar    
   21   10   20 1     
@<TRIPOS>SUBSTRUCTURE
      1 S1             1
@<TRIPOS>SET
LONE_PAIRS      STATIC     ATOMS    <user>   **** ""
1 9
DONOR_HYDROGENS      STATIC     ATOMS    <user>   **** ""
4 11 12 21 19
ATOM$BLUE        STATIC     ATOMS    COLORGROUP SYSTEM
1 9
ATOM$RED        STATIC     ATOMS    COLORGROUP SYSTEM
4 11 12 21 19
