#       Name:                AV-unprocessed.smi:720
#       Creating user name   scv26
#       Creation time:       Fri Mar 27 00:49:21 2020


#       File generated by GOLD software.
#

@<TRIPOS>MOLECULE
AV-unprocessed.smi:720
    50    52     1
SMALL
NO_CHARGES


@<TRIPOS>ATOM
      1 ****        -3.4445  -1.2829  -1.5135 C.3            1 S1                 0.0000
      2 ****        -3.4284  -2.3572  -2.4998 N.3            1 S1                 0.0000
      3 ****        -4.8009  -2.5967  -2.9267 C.3            1 S1                 0.0000
      4 ****        -2.8799  -3.5992  -1.9515 C.3            1 S1                 0.0000
      5 ****        -1.3443  -3.5832  -1.7921 C.3            1 S1                 0.0000
      6 ****        -0.8951  -2.9770  -0.5507 N.pl3          1 S1                 0.0000
      7 ****        -1.2087  -3.3386   0.7445 C.2            1 S1                 0.0000
      8 ****        -0.5411  -2.4915   1.5824 C.2            1 S1                 0.0000
      9 ****         0.1731  -1.6425   0.6850 C.2            1 S1                 0.0000
     10 ****         1.0333  -0.5760   1.0491 N.am           1 S1                 0.0000
     11 ****         1.2274  -0.0308   2.2651 C.2            1 S1                 0.0000
     12 ****         0.6946  -0.4197   3.3024 O.2            1 S1                 0.0000
     13 ****         2.0713   1.0166   2.2676 N.am           1 S1                 0.0000
     14 ****         2.4959   1.8296   3.4114 C.3            1 S1                 0.0000
     15 ****         3.3043   3.0615   2.9476 C.3            1 S1                 0.0000
     16 ****         4.6463   2.8978   3.6849 C.3            1 S1                 0.0000
     17 ****         5.4368   1.7282   3.0675 C.3            1 S1                 0.0000
     18 ****         4.6686   0.4924   3.5730 C.3            1 S1                 0.0000
     19 ****         3.4996   1.1221   4.3601 C.3            1 S1                 0.0000
     20 ****         4.1970   2.3095   5.0153 C.3            1 S1                 0.0000
     21 ****        -0.0225  -1.9463  -0.5862 N.2            1 S1                 0.0000
     22 ****        -2.4355  -0.9781  -1.2436 H              1 S1                 0.0000
     23 ****        -3.9702  -1.5821  -0.6056 H              1 S1                 0.0000
     24 ****        -3.9409  -0.4000  -1.9180 H              1 S1                 0.0000
     25 ****        -4.8367  -3.3691  -3.6957 H              1 S1                 0.0000
     26 ****        -5.2346  -1.6912  -3.3530 H              1 S1                 0.0000
     27 ****        -5.4272  -2.9157  -2.0920 H              1 S1                 0.0000
     28 ****        -3.3773  -3.8684  -1.0185 H              1 S1                 0.0000
     29 ****        -3.1116  -4.3986  -2.6569 H              1 S1                 0.0000
     30 ****        -0.9766  -4.6097  -1.7944 H              1 S1                 0.0000
     31 ****        -0.8717  -3.0877  -2.6421 H              1 S1                 0.0000
     32 ****        -1.8779  -4.1583   0.9606 H              1 S1                 0.0000
     33 ****        -0.5683  -2.4947   2.6615 H              1 S1                 0.0000
     34 ****         1.5259  -0.1395   0.2836 H              1 S1                 0.0000
     35 ****         2.4592   1.2827   1.3740 H              1 S1                 0.0000
     36 ****         1.6213   2.1676   3.9703 H              1 S1                 0.0000
     37 ****         3.4385   3.1102   1.8659 H              1 S1                 0.0000
     38 ****         2.8050   3.9804   3.2572 H              1 S1                 0.0000
     39 ****         5.2190   3.8226   3.7587 H              1 S1                 0.0000
     40 ****         5.4673   1.7814   1.9787 H              1 S1                 0.0000
     41 ****         6.4647   1.7150   3.4315 H              1 S1                 0.0000
     42 ****         4.3487  -0.1651   2.7648 H              1 S1                 0.0000
     43 ****         5.2993  -0.0984   4.2386 H              1 S1                 0.0000
     44 ****         3.0285   0.4326   5.0612 H              1 S1                 0.0000
     45 ****         5.0261   2.0225   5.6649 H              1 S1                 0.0000
     46 ****         3.5170   2.9592   5.5694 H              1 S1                 0.0000
     47 ****        -2.8456  -2.0791  -3.2633 LP             1 S1                 0.0000
     48 ****         0.0645  -1.1959   3.2803 LP             1 S1                 0.0000
     49 ****         0.8914   0.0401   4.1684 LP             1 S1                 0.0000
     50 ****         0.3829  -1.5123  -1.3907 LP             1 S1                 0.0000
@<TRIPOS>BOND
    1    1    2 1     
    2    1   22 1     
    3    1   23 1     
    4    1   24 1     
    5    2    3 1     
    6    2    4 1     
    7    3   25 1     
    8    3   26 1     
    9    3   27 1     
   10    4    5 1     
   11    4   28 1     
   12    4   29 1     
   13    5    6 1     
   14    5   30 1     
   15    5   31 1     
   16    6   21 1     
   17    6    7 1     
   18    7    8 2     
   19    7   32 1     
   20    8    9 1     
   21    8   33 1     
   22    9   10 1     
   23    9   21 2     
   24   10   11 am    
   25   10   34 1     
   26   11   12 2     
   27   11   13 am    
   28   13   14 1     
   29   13   35 1     
   30   14   19 1     
   31   14   15 1     
   32   14   36 1     
   33   15   16 1     
   34   15   37 1     
   35   15   38 1     
   36   16   20 1     
   37   16   17 1     
   38   16   39 1     
   39   17   18 1     
   40   17   40 1     
   41   17   41 1     
   42   18   19 1     
   43   18   42 1     
   44   18   43 1     
   45   19   20 1     
   46   19   44 1     
   47   20   45 1     
   48   20   46 1     
   49    2   47 1     
   50   12   48 1     
   51   12   49 1     
   52   21   50 1     
@<TRIPOS>SUBSTRUCTURE
      1 S1             1
@<TRIPOS>SET
LONE_PAIRS      STATIC     ATOMS    <user>   **** ""
4 47 48 49 50
DONOR_HYDROGENS      STATIC     ATOMS    <user>   **** ""
2 34 35
ATOM$BLUE        STATIC     ATOMS    COLORGROUP SYSTEM
4 47 48 49 50
ATOM$RED        STATIC     ATOMS    COLORGROUP SYSTEM
2 34 35
