AV-unprocessed.smi:2605|AV-procd|sdf|10196|dock1
  -GOLD-   2272014203D 1   1.00000     0.00000
 Structure written by MMmdl.
 26 27  0  0  0  0  0  0  0  0  2 V2000
  152.3118  142.3821  159.7663 C   0  0  0  0  0  0  0  0  0  0  0  0
  151.8817  141.7839  158.5649 C   0  0  0  0  0  0  0  0  0  0  0  0
  151.4610  142.6176  157.5070 C   0  0  0  0  0  0  0  0  0  0  0  0
  151.0015  142.0153  156.1885 C   0  0  1  0  0  0  0  0  0  0  0  0
  151.3025  140.5024  156.0778 C   0  0  0  0  0  0  0  0  0  0  0  0
  150.8615  139.9990  154.7800 N   0  0  0  0  0  0  0  0  0  0  0  0
  149.4172  140.1786  154.6696 C   0  0  0  0  0  0  0  0  0  0  0  0
  149.0714  141.6782  154.7333 C   0  0  0  0  0  0  0  0  0  0  0  0
  149.5552  142.2576  156.0026 N   0  3  0  0  0  0  0  0  0  0  0  0
  151.4997  144.0160  157.7014 C   0  0  0  0  0  0  0  0  0  0  0  0
  151.9472  144.5123  158.9423 C   0  0  0  0  0  0  0  0  0  0  0  0
  152.3469  143.7179  159.9577 N   0  0  0  0  0  0  0  0  0  0  0  0
  152.6378  141.7706  160.5946 H   0  0  0  0  0  0  0  0  0  0  0  0
  151.8757  140.7083  158.4655 H   0  0  0  0  0  0  0  0  0  0  0  0
  151.5282  142.5304  155.3828 H   0  0  0  0  0  0  0  0  0  0  0  0
  152.3744  140.3266  156.1739 H   0  0  0  0  0  0  0  0  0  0  0  0
  150.8129  139.9369  156.8714 H   0  0  0  0  0  0  0  0  0  0  0  0
  151.0868  139.0165  154.7043 H   0  0  0  0  0  0  0  0  0  0  0  0
  149.0804  139.7574  153.7220 H   0  0  0  0  0  0  0  0  0  0  0  0
  148.9101  139.6275  155.4630 H   0  0  0  0  0  0  0  0  0  0  0  0
  149.5202  142.2118  153.8941 H   0  0  0  0  0  0  0  0  0  0  0  0
  147.9932  141.8228  154.6643 H   0  0  0  0  0  0  0  0  0  0  0  0
  149.0572  141.8268  156.7683 H   0  0  0  0  0  0  0  0  0  0  0  0
  151.1983  144.7006  156.9224 H   0  0  0  0  0  0  0  0  0  0  0  0
  151.9883  145.5764  159.1221 H   0  0  0  0  0  0  0  0  0  0  0  0
  149.3783  143.2518  156.0099 H   0  0  0  0  0  0  0  0  0  0  0  0
  1 12  1  0  0  0  0
  1  2  2  0  0  0  0
  1 13  1  0  0  0  0
  2  3  1  0  0  0  0
  2 14  1  0  0  0  0
  3  4  1  0  0  0  0
  3 10  2  0  0  0  0
  4  9  1  0  0  0  0
  4  5  1  0  0  0  0
  4 15  1  0  0  0  0
  5  6  1  0  0  0  0
  5 16  1  0  0  0  0
  5 17  1  0  0  0  0
  6  7  1  0  0  0  0
  6 18  1  0  0  0  0
  7  8  1  0  0  0  0
  7 19  1  0  0  0  0
  7 20  1  0  0  0  0
  8  9  1  0  0  0  0
  8 21  1  0  0  0  0
  8 22  1  0  0  0  0
  9 23  1  0  0  0  0
  9 26  1  0  0  0  0
 10 11  1  0  0  0  0
 10 24  1  0  0  0  0
 11 12  2  0  0  0  0
 11 25  1  0  0  0  0
M  CHG  1   9   1
M  END
> <s_m_source_file>
AV-unprocessed.smi

> <i_m_source_file_index>
2605

> <i_lp_mmshare_version>
43012

> <i_f3d_flags>
0

> <s_epik_input>
W2NIXTFbY0hdbltjSF1bY0hdYzFbQ0BASF0yW0NIMl1bTkhdW0NIMl1bQ0gyXVtOSF0y

> <s_epik_cmdline>
J2VwaWtfcHl0aG9uJywgJy1waCcsICc3LjAnLCAnLXRuJywgJzgnLCAnLW1hJywgJzIwMCcsICctbWV0YWxfYmluZGluZycsICctaW1hZScsICc8aW5maWxlLm1hZT4nLCAnLW9tYWUnLCAnPG91dGZpbGUubWFlPic=

> <r_epik_Ionization_Penalty>
0.0246915

> <r_epik_Ionization_Penalty_Charging>
0.015072

> <r_epik_Ionization_Penalty_Neutral>
0.00961942

> <r_epik_State_Penalty>
0.518662

> <r_epik_Charging_Adjusted_Penalty>
0.533734

> <i_epik_Tot_Q>
1

> <i_epik_Tot_abs_Q>
1

> <r_epik_Metal_State_Penalty>
0.520249

> <b_epik_Metal_Only>
0

> <s_lp_Force_Field>
OPLS_2005

> <r_lp_Energy>
7.08803

> <b_lp_Chiralities_Consistent>
1

> <s_lp_Variant>
AV-unprocessed.smi:2605-4

> <Gold.Version>
5.8.1

> <Gold.Id.Protein>
6NUR|6NUR_protein|mol2

> <Gold.PLP.Fitness>
39.0224

> <Gold.PLP.PLP>
-30.3614

> <Gold.PLP.part.hbond>
-2.0000

> <Gold.PLP.part.metal>
0.0000

> <Gold.PLP.part.buried>
-4.2924

> <Gold.PLP.part.nonpolar>
-23.7904

> <Gold.PLP.part.repulsive>
0.1287

> <Gold.PLP.ligand.clash>
0.0000

> <Gold.PLP.ligand.torsion>
0.1754

> <Gold.PLP.Chemscore.Hbond>
3.0000

> <Gold.PLP.Chemscore.CHOScore>
0.0000

> <Gold.PLP.Chemscore.Metal>
0.0000

> <Gold.Chemscore.Hbonds>
donor molecule, donor type, donor heavy atom, donor atom, acceptor molecule, acceptor atom, score
      L1  H     9    26       P1  8028  2.00
      P1  H  7989  7998       L1     6  1.00

> <Gold.PLP.Chemscore.Internal.Correction>
0.0119

> <Gold.Rescore>
     Score         DG    S(hbond)    S(metal)    S(lipo)     H(rot)  DE(clash)    DE(int)     intcor
     17.19     -17.36       1.40        0.00      83.41       1.00       0.02       0.15       ----

> <Gold.Chemscore.Fitness>
17.1923

> <Gold.Chemscore.DG>
-17.3616

> <Gold.Chemscore.ZeroCoef>
-5.4800

> <Gold.Chemscore.Hbond>
1.4021

> <Gold.Chemscore.Metal>
0.0000

> <Gold.Chemscore.Lipo>
83.4065

> <Gold.Chemscore.Internal_Hbond>
0.0000

> <Gold.Chemscore.DEClash>
0.0222

> <Gold.Chemscore.DEInternal>
0.1471

> <Gold.Chemscore.Rot>
1.0000

> <Gold.Chemscore.Internal.Correction>
   9.000000E+99

> <Gold.Chemscore.Hbonds>
donor molecule, donor type, donor heavy atom, donor atom, acceptor molecule, acceptor atom, score
      L1  H     9    26       P1  8028  0.98
      P1  H  7989  7998       L1     6  0.41

> <Gold.Chemscore.Hbond.Weighted>
-4.6830

> <Gold.Chemscore.Metal.Weighted>
-0.0000

> <Gold.Chemscore.Lipo.Weighted>
-9.7586

> <Gold.Chemscore.Internal_Hbond.Weighted>
0.0000

> <Gold.Chemscore.DEClash.Weighted>
0.0222

> <Gold.Chemscore.DEInternal.Weighted>
0.1471

> <Gold.Chemscore.Rot.Weighted>
2.5600

> <Gold.Chemscore.Internal.Correction.Weighted>
   9.000000E+99

> <Gold.Protein.RotatedTorsions>
[ 6907 6896 6895 6894 ] final  125.62 input  -60.11 | X-H torsion
[ 7974 7965 7964 7962 ] final   27.22 input  175.53 | X-H torsion
[ 8008 7997 7996 7995 ] final  -45.03 input   59.86 | X-H torsion
[ 10167 10162 10161 10158 ] final   96.96 input  -65.29 | X-H torsion
[ 10718 10713 10712 10709 ] final -166.29 input   66.30 | X-H torsion
[ 10763 10752 10751 10750 ] final  143.73 input  -60.55 | X-H torsion
[ 11005 11000 10999 10996 ] final  150.58 input  -57.11 | X-H torsion

> <Gold.Protein.ActiveResidues>
 VAL166  LYS551  ARG553  GLY616  TRP617  ASP618  TYR619  PRO620  LYS621  CYS622 
 ASP623  PHE694  ASN695  SER759  ASP760  ASP761  ALA762  ILE779  LEU786  VAL792 
 PHE793  MET794  SER795  GLU796  ALA797  LYS798  CYS799  TRP800  GLU811  SER814 

> <Gold.Protein.RotatedAtoms>
  152.3976  133.6770  159.6288 H   0  0  0  0  0  0  0  0  0  0  0  0  # atno 6907 bound_to 6896
  150.7872  133.8847  159.3305 H   0  0  0  0  0  0  0  0  0  0  0  0  # atno 6908 bound_to 6896
  151.6620  135.0989  160.0233 H   0  0  0  0  0  0  0  0  0  0  0  0  # atno 6909 bound_to 6896
  146.1796  139.7221  142.8910 H   0  0  0  0  0  0  0  0  0  0  0  0  # atno 7974 bound_to 7965
  154.3999  140.1407  156.3780 H   0  0  0  0  0  0  0  0  0  0  0  0  # atno 8008 bound_to 7997
  155.8030  140.3475  155.5393 H   0  0  0  0  0  0  0  0  0  0  0  0  # atno 8009 bound_to 7997
  155.8464  140.0934  157.1693 H   0  0  0  0  0  0  0  0  0  0  0  0  # atno 8010 bound_to 7997
  139.7845  144.6876  150.9977 H   0  0  0  0  0  0  0  0  0  0  0  0  # atno 10167 bound_to 10162
  156.6657  130.9064  151.3036 H   0  0  0  0  0  0  0  0  0  0  0  0  # atno 10718 bound_to 10713
  153.9772  135.2945  155.3423 H   0  0  0  0  0  0  0  0  0  0  0  0  # atno 10763 bound_to 10752
  154.7289  135.5076  153.8935 H   0  0  0  0  0  0  0  0  0  0  0  0  # atno 10764 bound_to 10752
  153.0872  135.6697  154.0040 H   0  0  0  0  0  0  0  0  0  0  0  0  # atno 10765 bound_to 10752
  140.1143  134.8904  157.1982 H   0  0  0  0  0  0  0  0  0  0  0  0  # atno 11005 bound_to 11000
  145.4115  141.0397  143.3015 LP  0  0  0  0  0  0  0  0  0  0  0  0  # atno 17320 bound_to 7965
  144.8292  139.5657  143.6951 LP  0  0  0  0  0  0  0  0  0  0  0  0  # atno 17321 bound_to 7965
  140.7819  143.4447  151.0500 LP  0  0  0  0  0  0  0  0  0  0  0  0  # atno 17342 bound_to 10162
  139.8126  143.7930  152.3172 LP  0  0  0  0  0  0  0  0  0  0  0  0  # atno 17343 bound_to 10162
  157.7094  130.9423  150.1039 LP  0  0  0  0  0  0  0  0  0  0  0  0  # atno 17370 bound_to 10713
  156.1977  130.3658  149.8828 LP  0  0  0  0  0  0  0  0  0  0  0  0  # atno 17371 bound_to 10713
  140.3049  134.3090  155.7281 LP  0  0  0  0  0  0  0  0  0  0  0  0  # atno 17394 bound_to 11000
  141.2137  133.7614  156.9693 LP  0  0  0  0  0  0  0  0  0  0  0  0  # atno 17395 bound_to 11000

$$$$
