#       Name:                AV-unprocessed.smi:1699
#       Creating user name   scv26
#       Creation time:       Fri Mar 27 07:59:38 2020


#       File generated by GOLD software.
#

@<TRIPOS>MOLECULE
AV-unprocessed.smi:1699
    42    43     1
SMALL
NO_CHARGES


@<TRIPOS>ATOM
      1 ****        -3.9348  -0.6578   1.2945 C.3            1 S1                 0.0000
      2 ****        -3.7128   0.7933   0.8991 C.ar           1 S1                 0.0000
      3 ****        -4.8249   1.6532   0.7772 C.ar           1 S1                 0.0000
      4 ****        -4.6186   2.9942   0.4114 C.ar           1 S1                 0.0000
      5 ****        -3.2995   3.4219   0.1831 C.ar           1 S1                 0.0000
      6 ****        -2.2311   2.6072   0.2975 N.ar           1 S1                 0.0000
      7 ****        -2.4128   1.3093   0.6489 C.ar           1 S1                 0.0000
      8 ****        -1.3325   0.3922   0.7862 N.am           1 S1                 0.0000
      9 ****        -0.0177   0.6152   0.6140 C.2            1 S1                 0.0000
     10 ****         0.4882   1.6962   0.3116 O.2            1 S1                 0.0000
     11 ****         0.6914  -0.5066   0.8112 N.am           1 S1                 0.0000
     12 ****         2.1449  -0.6314   0.7096 C.3            1 S1                 0.0000
     13 ****         2.6542  -1.4422   1.9103 C.3            1 S1                 0.0000
     14 ****         2.5420  -1.2829  -0.6319 C.3            1 S1                 0.0000
     15 ****         2.0733  -0.5343  -1.8821 C.3            1 S1                 0.0000
     16 ****         3.0615  -1.0174  -2.9175 C.3            1 S1                 0.0000
     17 ****         4.3525  -1.0772  -2.1075 C.3            1 S1                 0.0000
     18 ****         3.9615  -1.3379  -0.7615 O.3            1 S1                 0.0000
     19 ****        -4.9937  -0.8711   1.4441 H              1 S1                 0.0000
     20 ****        -3.4126  -0.8838   2.2246 H              1 S1                 0.0000
     21 ****        -3.5653  -1.3271   0.5170 H              1 S1                 0.0000
     22 ****        -5.8261   1.2921   0.9611 H              1 S1                 0.0000
     23 ****        -5.4490   3.6771   0.3092 H              1 S1                 0.0000
     24 ****        -3.0959   4.4444  -0.0982 H              1 S1                 0.0000
     25 ****        -1.5953  -0.5481   1.0408 H              1 S1                 0.0000
     26 ****         0.1864  -1.3462   1.0537 H              1 S1                 0.0000
     27 ****         2.6057   0.3567   0.7629 H              1 S1                 0.0000
     28 ****         3.7409  -1.5292   1.8946 H              1 S1                 0.0000
     29 ****         2.2402  -2.4510   1.9140 H              1 S1                 0.0000
     30 ****         2.3788  -0.9650   2.8514 H              1 S1                 0.0000
     31 ****         2.1682  -2.3074  -0.6754 H              1 S1                 0.0000
     32 ****         1.0378  -0.7505  -2.1465 H              1 S1                 0.0000
     33 ****         2.1748   0.5436  -1.7471 H              1 S1                 0.0000
     34 ****         2.7852  -2.0148  -3.2620 H              1 S1                 0.0000
     35 ****         3.1319  -0.3610  -3.7853 H              1 S1                 0.0000
     36 ****         5.0392  -1.8386  -2.4778 H              1 S1                 0.0000
     37 ****         4.8656  -0.1154  -2.1370 H              1 S1                 0.0000
     38 ****        -1.3106   2.9574   0.1245 LP             1 S1                 0.0000
     39 ****        -0.0923   2.4988   0.1739 LP             1 S1                 0.0000
     40 ****         1.4795   1.7716   0.2038 LP             1 S1                 0.0000
     41 ****         4.2807  -2.2478  -0.4968 LP             1 S1                 0.0000
     42 ****         4.3732  -0.6525  -0.1609 LP             1 S1                 0.0000
@<TRIPOS>BOND
    1    1    2 1     
    2    1   19 1     
    3    1   20 1     
    4    1   21 1     
    5    2    7 ar    
    6    2    3 ar    
    7    3    4 ar    
    8    3   22 1     
    9    4    5 ar    
   10    4   23 1     
   11    5    6 ar    
   12    5   24 1     
   13    6    7 ar    
   14    7    8 1     
   15    8    9 am    
   16    8   25 1     
   17    9   10 2     
   18    9   11 am    
   19   11   12 1     
   20   11   26 1     
   21   12   13 1     
   22   12   14 1     
   23   12   27 1     
   24   13   28 1     
   25   13   29 1     
   26   13   30 1     
   27   14   18 1     
   28   14   15 1     
   29   14   31 1     
   30   15   16 1     
   31   15   32 1     
   32   15   33 1     
   33   16   17 1     
   34   16   34 1     
   35   16   35 1     
   36   17   18 1     
   37   17   36 1     
   38   17   37 1     
   39    6   38 1     
   40   10   39 1     
   41   10   40 1     
   42   18   41 1     
   43   18   42 1     
@<TRIPOS>SUBSTRUCTURE
      1 S1             1
@<TRIPOS>SET
LONE_PAIRS      STATIC     ATOMS    <user>   **** ""
5 38 39 40 41 42
DONOR_HYDROGENS      STATIC     ATOMS    <user>   **** ""
2 25 26
ATOM$BLUE        STATIC     ATOMS    COLORGROUP SYSTEM
5 38 39 40 41 42
ATOM$RED        STATIC     ATOMS    COLORGROUP SYSTEM
2 25 26
