AV-unprocessed.smi:3270|AV-procd|sdf|12513|dock1
  -GOLD-   2272018423D 1   1.00000     0.00000
 Structure written by MMmdl.
 38 39  0  0  0  0  0  0  0  0  1 V2000
  147.5566  134.1440  161.4467 C   0  0  0  0  0  0  0  0  0  0  0  0
  148.1103  135.5827  161.4946 C   0  0  1  0  0  0  0  0  0  0  0  0
  148.3862  136.1687  160.0952 C   0  0  0  0  0  0  0  0  0  0  0  0
  149.0272  135.5281  159.2611 O   0  0  0  0  0  0  0  0  0  0  0  0
  147.9124  137.4013  159.8525 N   0  0  0  0  0  0  0  0  0  0  0  0
  148.0633  138.1140  158.5921 C   0  0  0  0  0  0  0  0  0  0  0  0
  149.5385  138.4777  158.3594 C   0  0  0  0  0  0  0  0  0  0  0  0
  149.7783  139.3933  157.2455 N   0  0  0  0  0  0  0  0  0  0  0  0
  149.5537  138.7674  155.9439 C   0  0  0  0  0  0  0  0  0  0  0  0
  149.8384  139.7371  154.7833 C   0  0  0  0  0  0  0  0  0  0  0  0
  151.1686  140.2339  154.8876 O   0  0  0  0  0  0  0  0  0  0  0  0
  151.4113  140.8944  156.1254 C   0  0  0  0  0  0  0  0  0  0  0  0
  151.1368  139.9242  157.2874 C   0  0  0  0  0  0  0  0  0  0  0  0
  147.2448  136.4565  162.2815 N   0  0  0  0  0  0  0  0  0  0  0  0
  146.1361  136.1070  163.0258 C   0  0  0  0  0  0  0  0  0  0  0  0
  145.6559  137.2456  163.6066 C   0  0  0  0  0  0  0  0  0  0  0  0
  146.5504  138.2567  163.1584 C   0  0  0  0  0  0  0  0  0  0  0  0
  147.5005  137.7829  162.3693 N   0  0  0  0  0  0  0  0  0  0  0  0
  148.2553  133.4658  160.9553 H   0  0  0  0  0  0  0  0  0  0  0  0
  146.6091  134.0917  160.9087 H   0  0  0  0  0  0  0  0  0  0  0  0
  147.3861  133.7599  162.4528 H   0  0  0  0  0  0  0  0  0  0  0  0
  149.0736  135.5433  162.0052 H   0  0  0  0  0  0  0  0  0  0  0  0
  147.3973  137.8673  160.5853 H   0  0  0  0  0  0  0  0  0  0  0  0
  147.6828  137.4781  157.7927 H   0  0  0  0  0  0  0  0  0  0  0  0
  147.4582  139.0222  158.6031 H   0  0  0  0  0  0  0  0  0  0  0  0
  149.9127  138.9376  159.2755 H   0  0  0  0  0  0  0  0  0  0  0  0
  150.1238  137.5674  158.2205 H   0  0  0  0  0  0  0  0  0  0  0  0
  150.1899  137.8866  155.8417 H   0  0  0  0  0  0  0  0  0  0  0  0
  148.5240  138.4214  155.8615 H   0  0  0  0  0  0  0  0  0  0  0  0
  149.7218  139.2281  153.8263 H   0  0  0  0  0  0  0  0  0  0  0  0
  149.1313  140.5682  154.7927 H   0  0  0  0  0  0  0  0  0  0  0  0
  152.4465  141.2348  156.1511 H   0  0  0  0  0  0  0  0  0  0  0  0
  150.7799  141.7807  156.2035 H   0  0  0  0  0  0  0  0  0  0  0  0
  151.3035  140.4410  158.2332 H   0  0  0  0  0  0  0  0  0  0  0  0
  151.8559  139.1042  157.2491 H   0  0  0  0  0  0  0  0  0  0  0  0
  145.7841  135.0870  163.0794 H   0  0  0  0  0  0  0  0  0  0  0  0
  144.7970  137.3416  164.2539 H   0  0  0  0  0  0  0  0  0  0  0  0
  146.5385  139.3132  163.3827 H   0  0  0  0  0  0  0  0  0  0  0  0
  1  2  1  0  0  0  0
  1 19  1  0  0  0  0
  1 20  1  0  0  0  0
  1 21  1  0  0  0  0
  2  3  1  0  0  0  0
  2 14  1  0  0  0  0
  2 22  1  0  0  0  0
  3  4  2  0  0  0  0
  3  5  1  0  0  0  0
  5  6  1  0  0  0  0
  5 23  1  0  0  0  0
  6  7  1  0  0  0  0
  6 24  1  0  0  0  0
  6 25  1  0  0  0  0
  7  8  1  0  0  0  0
  7 26  1  0  0  0  0
  7 27  1  0  0  0  0
  8 13  1  0  0  0  0
  8  9  1  0  0  0  0
  9 10  1  0  0  0  0
  9 28  1  0  0  0  0
  9 29  1  0  0  0  0
 10 11  1  0  0  0  0
 10 30  1  0  0  0  0
 10 31  1  0  0  0  0
 11 12  1  0  0  0  0
 12 13  1  0  0  0  0
 12 32  1  0  0  0  0
 12 33  1  0  0  0  0
 13 34  1  0  0  0  0
 13 35  1  0  0  0  0
 14 18  1  0  0  0  0
 14 15  1  0  0  0  0
 15 16  2  0  0  0  0
 15 36  1  0  0  0  0
 16 17  1  0  0  0  0
 16 37  1  0  0  0  0
 17 18  2  0  0  0  0
 17 38  1  0  0  0  0
M  END
> <s_m_source_file>
AV-unprocessed.smi

> <i_m_source_file_index>
3270

> <i_lp_mmshare_version>
43012

> <i_f3d_flags>
0

> <s_epik_input>
bjFbY0hdW2NIXVtjSF1uMVtDQEhdKFtDSDNdKUMoPU8pW05IXVtDSDJdW0NIMl1OMltDSDJdW0NIMl1PW0NIMl1bQ0gyXTI=

> <s_epik_cmdline>
J2VwaWtfcHl0aG9uJywgJy1waCcsICc3LjAnLCAnLXRuJywgJzgnLCAnLW1hJywgJzIwMCcsICctbWV0YWxfYmluZGluZycsICctaW1hZScsICc8aW5maWxlLm1hZT4nLCAnLW9tYWUnLCAnPG91dGZpbGUubWFlPic=

> <r_lp_tautomer_probability>
1

> <r_epik_Ionization_Penalty>
0.203323

> <r_epik_Ionization_Penalty_Charging>
0

> <r_epik_Ionization_Penalty_Neutral>
0.203323

> <r_epik_State_Penalty>
0.193192

> <r_epik_Charging_Adjusted_Penalty>
0.193192

> <i_epik_Tot_Q>
0

> <i_epik_Tot_abs_Q>
0

> <r_epik_Metal_State_Penalty>
0.193187

> <b_epik_Metal_Only>
0

> <s_lp_Force_Field>
OPLS_2005

> <r_lp_Energy>
25.3567

> <b_lp_Chiralities_Consistent>
1

> <s_lp_Variant>
AV-unprocessed.smi:3270-2

> <Gold.Version>
5.8.1

> <Gold.Id.Protein>
6NUR|6NUR_protein|mol2

> <Gold.PLP.Fitness>
36.4216

> <Gold.PLP.PLP>
-28.2938

> <Gold.PLP.part.hbond>
-3.0000

> <Gold.PLP.part.metal>
0.0000

> <Gold.PLP.part.buried>
-4.5642

> <Gold.PLP.part.nonpolar>
-20.1289

> <Gold.PLP.part.repulsive>
0.2215

> <Gold.PLP.ligand.clash>
0.0000

> <Gold.PLP.ligand.torsion>
0.4439

> <Gold.PLP.Chemscore.Hbond>
2.9600

> <Gold.PLP.Chemscore.CHOScore>
0.0000

> <Gold.PLP.Chemscore.Metal>
0.0000

> <Gold.Chemscore.Hbonds>
donor molecule, donor type, donor heavy atom, donor atom, acceptor molecule, acceptor atom, score
      P1  H  6896  6909       L1     4  1.00
      P1  H  6931  6943       L1    18  0.53
      P1  H  6934  6947       L1    18  0.28
      P1  H  7989  7998       L1    11  1.00

> <Gold.PLP.Chemscore.Internal.Correction>
0.1356

> <Gold.Rescore>
     Score         DG    S(hbond)    S(metal)    S(lipo)     H(rot)  DE(clash)    DE(int)     intcor
     14.68     -16.74       2.88        0.00      54.15       1.83       0.01       2.05       ----

> <Gold.Chemscore.Fitness>
14.6787

> <Gold.Chemscore.DG>
-16.7374

> <Gold.Chemscore.ZeroCoef>
-5.4800

> <Gold.Chemscore.Hbond>
2.8754

> <Gold.Chemscore.Metal>
0.0000

> <Gold.Chemscore.Lipo>
54.1506

> <Gold.Chemscore.Internal_Hbond>
0.0000

> <Gold.Chemscore.DEClash>
0.0060

> <Gold.Chemscore.DEInternal>
2.0527

> <Gold.Chemscore.Rot>
1.8290

> <Gold.Chemscore.Internal.Correction>
   9.000000E+99

> <Gold.Chemscore.Hbonds>
donor molecule, donor type, donor heavy atom, donor atom, acceptor molecule, acceptor atom, score
      P1  H  6896  6909       L1     4  0.99
      P1  H  6931  6943       L1    18  0.51
      P1  H  6934  6947       L1    18  0.03
      P1  H  7989  7998       L1    11  0.75

> <Gold.Chemscore.Hbond.Weighted>
-9.6039

> <Gold.Chemscore.Metal.Weighted>
-0.0000

> <Gold.Chemscore.Lipo.Weighted>
-6.3356

> <Gold.Chemscore.Internal_Hbond.Weighted>
0.0000

> <Gold.Chemscore.DEClash.Weighted>
0.0060

> <Gold.Chemscore.DEInternal.Weighted>
2.0527

> <Gold.Chemscore.Rot.Weighted>
4.6821

> <Gold.Chemscore.Internal.Correction.Weighted>
   9.000000E+99

> <Gold.Protein.RotatedTorsions>
[ 6907 6896 6895 6894 ] final   46.89 input  -60.11 | X-H torsion
[ 7974 7965 7964 7962 ] final  -16.10 input  175.53 | X-H torsion
[ 8008 7997 7996 7995 ] final   81.82 input   59.86 | X-H torsion
[ 10167 10162 10161 10158 ] final  146.24 input  -65.29 | X-H torsion
[ 10718 10713 10712 10709 ] final -164.22 input   66.30 | X-H torsion
[ 10763 10752 10751 10750 ] final  161.72 input  -60.55 | X-H torsion
[ 11005 11000 10999 10996 ] final  -38.91 input  -57.11 | X-H torsion

> <Gold.Protein.ActiveResidues>
 VAL166  LYS551  ARG553  GLY616  TRP617  ASP618  TYR619  PRO620  LYS621  CYS622 
 ASP623  PHE694  ASN695  SER759  ASP760  ASP761  ALA762  ILE779  LEU786  VAL792 
 PHE793  MET794  SER795  GLU796  ALA797  LYS798  CYS799  TRP800  GLU811  SER814 

> <Gold.Protein.RotatedAtoms>
  152.2617  134.8027  160.0429 H   0  0  0  0  0  0  0  0  0  0  0  0  # atno 6907 bound_to 6896
  151.8671  133.3463  159.3731 H   0  0  0  0  0  0  0  0  0  0  0  0  # atno 6908 bound_to 6896
  150.7119  134.5076  159.5636 H   0  0  0  0  0  0  0  0  0  0  0  0  # atno 6909 bound_to 6896
  146.2002  140.3588  142.8426 H   0  0  0  0  0  0  0  0  0  0  0  0  # atno 7974 bound_to 7965
  155.9023  140.3432  155.6035 H   0  0  0  0  0  0  0  0  0  0  0  0  # atno 8008 bound_to 7997
  155.7486  140.0817  157.2231 H   0  0  0  0  0  0  0  0  0  0  0  0  # atno 8009 bound_to 7997
  154.4045  140.1557  156.2685 H   0  0  0  0  0  0  0  0  0  0  0  0  # atno 8010 bound_to 7997
  139.4911  144.5844  151.6808 H   0  0  0  0  0  0  0  0  0  0  0  0  # atno 10167 bound_to 10162
  156.6359  130.8949  151.2987 H   0  0  0  0  0  0  0  0  0  0  0  0  # atno 10718 bound_to 10713
  154.2673  135.2766  155.2753 H   0  0  0  0  0  0  0  0  0  0  0  0  # atno 10763 bound_to 10752
  154.5332  135.5724  153.6779 H   0  0  0  0  0  0  0  0  0  0  0  0  # atno 10764 bound_to 10752
  152.9951  135.6233  154.2826 H   0  0  0  0  0  0  0  0  0  0  0  0  # atno 10765 bound_to 10752
  141.0063  133.6930  156.2117 H   0  0  0  0  0  0  0  0  0  0  0  0  # atno 11005 bound_to 11000
  144.8668  140.7216  143.6072 LP  0  0  0  0  0  0  0  0  0  0  0  0  # atno 17320 bound_to 7965
  145.3508  139.1707  143.4435 LP  0  0  0  0  0  0  0  0  0  0  0  0  # atno 17321 bound_to 7965
  140.5456  144.0508  150.6106 LP  0  0  0  0  0  0  0  0  0  0  0  0  # atno 17342 bound_to 10162
  140.3545  143.2944  152.0451 LP  0  0  0  0  0  0  0  0  0  0  0  0  # atno 17343 bound_to 10162
  157.7186  130.9528  150.1349 LP  0  0  0  0  0  0  0  0  0  0  0  0  # atno 17370 bound_to 10713
  156.2197  130.3673  149.8570 LP  0  0  0  0  0  0  0  0  0  0  0  0  # atno 17371 bound_to 10713
  140.6807  134.4770  157.5589 LP  0  0  0  0  0  0  0  0  0  0  0  0  # atno 17394 bound_to 11000
  139.9065  134.8437  156.1686 LP  0  0  0  0  0  0  0  0  0  0  0  0  # atno 17395 bound_to 11000

$$$$
