AV-unprocessed.smi:2451|AV-procd|sdf|9681|dock7
  -GOLD-   2272013323D 1   1.00000     0.00000
 Structure written by MMmdl.
 37 38  0  0  0  0  0  0  0  0  2 V2000
  152.1877  143.3062  161.5049 C   0  0  0  0  0  0  0  0  0  0  0  0
  152.8959  143.4773  160.1401 C   0  0  2  0  0  0  0  0  0  0  0  0
  152.0347  144.3116  159.1604 C   0  0  0  0  0  0  0  0  0  0  0  0
  150.8964  143.4531  158.5728 C   0  0  0  0  0  0  0  0  0  0  0  0
  151.4211  142.1623  157.9020 C   0  0  0  0  0  0  0  0  0  0  0  0
  152.2833  141.2824  158.8393 C   0  0  1  0  0  0  0  0  0  0  0  0
  152.8524  140.1833  158.0712 N   0  5  0  0  0  0  0  0  0  0  0  0
  152.3828  138.6639  158.3843 S   0  0  0  0  0  0  0  0  0  0  0  0
  153.1465  138.0475  159.4818 O   0  0  0  0  0  0  0  0  0  0  0  0
  150.9179  138.5256  158.4312 O   0  0  0  0  0  0  0  0  0  0  0  0
  152.9310  137.8165  156.8418 C   0  0  0  0  0  0  0  0  0  0  0  0
  152.0650  138.2341  155.6869 C   0  0  0  0  0  0  0  0  0  0  0  0
  151.4039  137.4107  154.7336 C   0  0  0  0  0  0  0  0  0  0  0  0
  150.7664  138.3067  153.9253 C   0  0  0  0  0  0  0  0  0  0  0  0
  151.0004  139.5757  154.3442 O   0  0  0  0  0  0  0  0  0  0  0  0
  151.8276  139.5192  155.4716 N   0  0  0  0  0  0  0  0  0  0  0  0
  153.4140  142.1489  159.4868 C   0  0  2  0  0  0  0  0  0  0  0  0
  154.3210  141.3579  160.4609 C   0  0  0  0  0  0  0  0  0  0  0  0
  151.2963  142.6833  161.4337 H   0  0  0  0  0  0  0  0  0  0  0  0
  151.8776  144.2720  161.9039 H   0  0  0  0  0  0  0  0  0  0  0  0
  152.8471  142.8571  162.2468 H   0  0  0  0  0  0  0  0  0  0  0  0
  153.7790  144.0822  160.3508 H   0  0  0  0  0  0  0  0  0  0  0  0
  151.6316  145.1970  159.6528 H   0  0  0  0  0  0  0  0  0  0  0  0
  152.6638  144.6738  158.3462 H   0  0  0  0  0  0  0  0  0  0  0  0
  150.1734  143.2083  159.3530 H   0  0  0  0  0  0  0  0  0  0  0  0
  150.3463  144.0411  157.8377 H   0  0  0  0  0  0  0  0  0  0  0  0
  150.5772  141.5819  157.5268 H   0  0  0  0  0  0  0  0  0  0  0  0
  152.0075  142.4439  157.0259 H   0  0  0  0  0  0  0  0  0  0  0  0
  151.6388  140.9230  159.6425 H   0  0  0  0  0  0  0  0  0  0  0  0
  153.9740  138.0754  156.6623 H   0  0  0  0  0  0  0  0  0  0  0  0
  152.8796  136.7404  157.0095 H   0  0  0  0  0  0  0  0  0  0  0  0
  151.4058  136.3338  154.6537 H   0  0  0  0  0  0  0  0  0  0  0  0
  150.1365  138.2029  153.0543 H   0  0  0  0  0  0  0  0  0  0  0  0
  154.0635  142.4648  158.6681 H   0  0  0  0  0  0  0  0  0  0  0  0
  153.7613  140.9098  161.2836 H   0  0  0  0  0  0  0  0  0  0  0  0
  155.0759  142.0107  160.8992 H   0  0  0  0  0  0  0  0  0  0  0  0
  154.8616  140.5533  159.9593 H   0  0  0  0  0  0  0  0  0  0  0  0
  1  2  1  0  0  0  0
  1 19  1  0  0  0  0
  1 20  1  0  0  0  0
  1 21  1  0  0  0  0
  2 17  1  0  0  0  0
  2  3  1  0  0  0  0
  2 22  1  0  0  0  0
  3  4  1  0  0  0  0
  3 23  1  0  0  0  0
  3 24  1  0  0  0  0
  4  5  1  0  0  0  0
  4 25  1  0  0  0  0
  4 26  1  0  0  0  0
  5  6  1  0  0  0  0
  5 27  1  0  0  0  0
  5 28  1  0  0  0  0
  6  7  1  0  0  0  0
  6 17  1  0  0  0  0
  6 29  1  0  0  0  0
  7  8  1  0  0  0  0
  8  9  2  0  0  0  0
  8 10  2  0  0  0  0
  8 11  1  0  0  0  0
 11 12  1  0  0  0  0
 11 30  1  0  0  0  0
 11 31  1  0  0  0  0
 12 16  2  0  0  0  0
 12 13  1  0  0  0  0
 13 14  2  0  0  0  0
 13 32  1  0  0  0  0
 14 15  1  0  0  0  0
 14 33  1  0  0  0  0
 15 16  1  0  0  0  0
 17 18  1  0  0  0  0
 17 34  1  0  0  0  0
 18 35  1  0  0  0  0
 18 36  1  0  0  0  0
 18 37  1  0  0  0  0
M  CHG  1   7  -1
M  END
> <s_m_source_file>
AV-unprocessed.smi

> <i_m_source_file_index>
2451

> <i_lp_mmshare_version>
43012

> <i_f3d_flags>
0

> <s_epik_input>
W0NIM11bQ0BASF0xW0NIMl1bQ0gyXVtDSDJdW0NASF0oW0NASF0xW0NIM10pW05IXVMoPU8pKD1PKVtDSDJdYzJbY0hdW2NIXW9uMg==

> <s_epik_cmdline>
J2VwaWtfcHl0aG9uJywgJy1waCcsICc3LjAnLCAnLXRuJywgJzgnLCAnLW1hJywgJzIwMCcsICctbWV0YWxfYmluZGluZycsICctaW1hZScsICc8aW5maWxlLm1hZT4nLCAnLW9tYWUnLCAnPG91dGZpbGUubWFlPic=

> <r_lp_tautomer_probability>
1

> <r_epik_Ionization_Penalty>
5.22693

> <r_epik_Ionization_Penalty_Charging>
5.22693

> <r_epik_Ionization_Penalty_Neutral>
2.67702e-10

> <r_epik_State_Penalty>
5.22685

> <r_epik_Charging_Adjusted_Penalty>
10.4538

> <i_epik_Tot_Q>
-1

> <i_epik_Tot_abs_Q>
1

> <r_epik_Metal_State_Penalty>
1.28716

> <b_epik_Metal_Only>
1

> <s_lp_Force_Field>
OPLS_2005

> <r_lp_Energy>
14.4343

> <b_lp_Chiralities_Consistent>
1

> <s_lp_Variant>
AV-unprocessed.smi:2451-13

> <Gold.Version>
5.8.1

> <Gold.Id.Protein>
6NUR|6NUR_protein|mol2

> <Gold.PLP.Fitness>
51.5264

> <Gold.PLP.PLP>
-37.6583

> <Gold.PLP.part.hbond>
-2.3670

> <Gold.PLP.part.metal>
0.0000

> <Gold.PLP.part.buried>
-4.8600

> <Gold.PLP.part.nonpolar>
-30.0676

> <Gold.PLP.part.repulsive>
0.1507

> <Gold.PLP.ligand.clash>
0.0000

> <Gold.PLP.ligand.torsion>
0.9299

> <Gold.PLP.Chemscore.Hbond>
2.9840

> <Gold.PLP.Chemscore.CHOScore>
1.9265

> <Gold.PLP.Chemscore.Metal>
0.0000

> <Gold.Chemscore.Hbonds>
donor molecule, donor type, donor heavy atom, donor atom, acceptor molecule, acceptor atom, score
      P1  H  7989  7998       L1    15  1.00
      P1  H  7997  8010       L1     7  1.98
      L1  C    14    33       P1  7948  0.98
      L1  C    14    33       P1  7949  0.01
      L1  C    14    33       P1  7957  0.64

> <Gold.PLP.Chemscore.Internal.Correction>
0.9965

> <Gold.Rescore>
     Score         DG    S(hbond)    S(metal)    S(lipo)     H(rot)  DE(clash)    DE(int)     intcor
     18.86     -21.20       1.81        0.00     113.16       1.40       0.10       2.24       ----

> <Gold.Chemscore.Fitness>
18.8634

> <Gold.Chemscore.DG>
-21.1993

> <Gold.Chemscore.ZeroCoef>
-5.4800

> <Gold.Chemscore.Hbond>
1.8142

> <Gold.Chemscore.Metal>
0.0000

> <Gold.Chemscore.Lipo>
113.1643

> <Gold.Chemscore.Internal_Hbond>
0.0000

> <Gold.Chemscore.DEClash>
0.1000

> <Gold.Chemscore.DEInternal>
2.2358

> <Gold.Chemscore.Rot>
1.3986

> <Gold.Chemscore.Internal.Correction>
   9.000000E+99

> <Gold.Chemscore.Hbonds>
donor molecule, donor type, donor heavy atom, donor atom, acceptor molecule, acceptor atom, score
      P1  H  7989  7998       L1    15  0.40
      P1  H  7997  8010       L1     7  0.54

> <Gold.Chemscore.Hbond.Weighted>
-6.0594

> <Gold.Chemscore.Metal.Weighted>
-0.0000

> <Gold.Chemscore.Lipo.Weighted>
-13.2402

> <Gold.Chemscore.Internal_Hbond.Weighted>
0.0000

> <Gold.Chemscore.DEClash.Weighted>
0.1000

> <Gold.Chemscore.DEInternal.Weighted>
2.2358

> <Gold.Chemscore.Rot.Weighted>
3.5804

> <Gold.Chemscore.Internal.Correction.Weighted>
   9.000000E+99

> <Gold.Protein.RotatedTorsions>
[ 6907 6896 6895 6894 ] final   91.53 input  -60.11 | X-H torsion
[ 7974 7965 7964 7962 ] final -126.10 input  175.53 | X-H torsion
[ 8008 7997 7996 7995 ] final   42.41 input   59.86 | X-H torsion
[ 10167 10162 10161 10158 ] final   67.54 input  -65.29 | X-H torsion
[ 10718 10713 10712 10709 ] final   13.75 input   66.30 | X-H torsion
[ 10763 10752 10751 10750 ] final   -8.16 input  -60.55 | X-H torsion
[ 11005 11000 10999 10996 ] final -110.85 input  -57.11 | X-H torsion

> <Gold.Protein.ActiveResidues>
 VAL166  LYS551  ARG553  GLY616  TRP617  ASP618  TYR619  PRO620  LYS621  CYS622 
 ASP623  PHE694  ASN695  SER759  ASP760  ASP761  ALA762  ILE779  LEU786  VAL792 
 PHE793  MET794  SER795  GLU796  ALA797  LYS798  CYS799  TRP800  GLU811  SER814 

> <Gold.Protein.RotatedAtoms>
  152.5450  134.1643  159.8570 H   0  0  0  0  0  0  0  0  0  0  0  0  # atno 6907 bound_to 6896
  151.1658  133.4808  159.2601 H   0  0  0  0  0  0  0  0  0  0  0  0  # atno 6908 bound_to 6896
  151.1325  135.0149  159.8644 H   0  0  0  0  0  0  0  0  0  0  0  0  # atno 6909 bound_to 6896
  144.9908  140.7729  143.4555 H   0  0  0  0  0  0  0  0  0  0  0  0  # atno 7974 bound_to 7965
  155.2858  140.3375  155.4255 H   0  0  0  0  0  0  0  0  0  0  0  0  # atno 8008 bound_to 7997
  156.2069  140.1754  156.7821 H   0  0  0  0  0  0  0  0  0  0  0  0  # atno 8009 bound_to 7997
  154.5633  140.0683  156.8837 H   0  0  0  0  0  0  0  0  0  0  0  0  # atno 8010 bound_to 7997
  140.0884  144.5009  150.7115 H   0  0  0  0  0  0  0  0  0  0  0  0  # atno 10167 bound_to 10162
  157.0292  130.6186  149.5732 H   0  0  0  0  0  0  0  0  0  0  0  0  # atno 10718 bound_to 10713
  153.4365  135.7013  153.6196 H   0  0  0  0  0  0  0  0  0  0  0  0  # atno 10763 bound_to 10752
  153.4589  135.3741  155.2327 H   0  0  0  0  0  0  0  0  0  0  0  0  # atno 10764 bound_to 10752
  154.8727  135.4015  154.3757 H   0  0  0  0  0  0  0  0  0  0  0  0  # atno 10765 bound_to 10752
  141.0768  133.9287  157.2372 H   0  0  0  0  0  0  0  0  0  0  0  0  # atno 11005 bound_to 11000
  145.2289  139.2124  143.5053 LP  0  0  0  0  0  0  0  0  0  0  0  0  # atno 17320 bound_to 7965
  146.3431  140.2162  142.8590 LP  0  0  0  0  0  0  0  0  0  0  0  0  # atno 17321 bound_to 7965
  140.7041  143.2455  151.4777 LP  0  0  0  0  0  0  0  0  0  0  0  0  # atno 17342 bound_to 10162
  139.5739  144.1865  152.1875 LP  0  0  0  0  0  0  0  0  0  0  0  0  # atno 17343 bound_to 10162
  156.0075  130.5164  150.7880 LP  0  0  0  0  0  0  0  0  0  0  0  0  # atno 17370 bound_to 10713
  157.5191  131.0930  151.0102 LP  0  0  0  0  0  0  0  0  0  0  0  0  # atno 17371 bound_to 10713
  139.9581  135.0161  156.9184 LP  0  0  0  0  0  0  0  0  0  0  0  0  # atno 17394 bound_to 11000
  140.5555  134.0586  155.7382 LP  0  0  0  0  0  0  0  0  0  0  0  0  # atno 17395 bound_to 11000

$$$$
