AV-unprocessed.smi:1911|AV-procd|sdf|7746|dock3
  -GOLD-   22720 9483D 1   1.00000     0.00000
 Structure written by MMmdl.
 52 54  0  0  0  0  0  0  0  0  4 V2000
  142.9325  132.0339  149.3736 N   0  5  0  0  0  0  0  0  0  0  0  0
  144.0757  132.4786  149.9331 C   0  0  0  0  0  0  0  0  0  0  0  0
  145.1993  132.5051  149.4364 O   0  0  0  0  0  0  0  0  0  0  0  0
  143.8642  132.9965  151.3600 C   0  0  0  0  0  0  0  0  0  0  0  0
  144.7726  134.1356  151.6500 N   0  3  2  0  0  0  0  0  0  0  0  0
  144.5611  134.7279  152.9979 C   0  0  0  0  0  0  0  0  0  0  0  0
  145.6136  135.8071  153.3013 C   0  0  0  0  0  0  0  0  0  0  0  0
  145.6141  136.9034  152.2203 C   0  0  1  0  0  0  0  0  0  0  0  0
  146.6783  137.8739  152.4623 N   0  0  0  0  0  0  0  0  0  0  0  0
  147.0353  138.3430  153.6668 C   0  0  0  0  0  0  0  0  0  0  0  0
  146.4928  137.9987  154.7166 O   0  0  0  0  0  0  0  0  0  0  0  0
  148.0351  139.2361  153.5666 N   0  0  0  0  0  0  0  0  0  0  0  0
  148.6950  139.9442  154.6072 C   0  0  0  0  0  0  0  0  0  0  0  0
  149.0807  139.3649  155.8411 C   0  0  0  0  0  0  0  0  0  0  0  0
  149.7489  140.1529  156.8008 C   0  0  0  0  0  0  0  0  0  0  0  0
  150.0319  141.5112  156.5232 C   0  0  0  0  0  0  0  0  0  0  0  0
  150.6991  142.3556  157.4311 N   0  0  0  0  0  0  0  0  0  0  0  0
  151.4441  141.8235  158.5652 C   0  0  0  0  0  0  0  0  0  0  0  0
  152.5407  142.8537  158.8578 C   0  0  0  0  0  0  0  0  0  0  0  0
  152.0146  144.1450  158.2315 C   0  0  0  0  0  0  0  0  0  0  0  0
  151.2239  143.6478  157.0220 C   0  0  0  0  0  0  0  0  0  0  0  0
  149.6593  142.0151  155.3225 N   0  3  0  0  0  0  0  0  0  0  0  0
  149.0195  141.2963  154.3753 C   0  0  0  0  0  0  0  0  0  0  0  0
  145.7984  136.2587  150.8372 C   0  0  0  0  0  0  0  0  0  0  0  0
  144.7423  135.1694  150.5851 C   0  0  0  0  0  0  0  0  0  0  0  0
  142.1233  132.6656  149.3413 H   0  0  0  0  0  0  0  0  0  0  0  0
  142.8225  133.3088  151.4497 H   0  0  0  0  0  0  0  0  0  0  0  0
  144.0127  132.1965  152.0870 H   0  0  0  0  0  0  0  0  0  0  0  0
  143.5590  135.1556  153.0550 H   0  0  0  0  0  0  0  0  0  0  0  0
  144.6166  133.9531  153.7628 H   0  0  0  0  0  0  0  0  0  0  0  0
  145.4169  136.2423  154.2818 H   0  0  0  0  0  0  0  0  0  0  0  0
  146.5994  135.3431  153.3611 H   0  0  0  0  0  0  0  0  0  0  0  0
  144.6506  137.4170  152.2322 H   0  0  0  0  0  0  0  0  0  0  0  0
  147.1757  138.2135  151.6520 H   0  0  0  0  0  0  0  0  0  0  0  0
  148.3208  139.4786  152.6290 H   0  0  0  0  0  0  0  0  0  0  0  0
  148.8922  138.3270  156.0674 H   0  0  0  0  0  0  0  0  0  0  0  0
  150.0406  139.7004  157.7368 H   0  0  0  0  0  0  0  0  0  0  0  0
  150.7678  141.7270  159.4151 H   0  0  0  0  0  0  0  0  0  0  0  0
  151.8757  140.8436  158.3587 H   0  0  0  0  0  0  0  0  0  0  0  0
  152.7551  142.9529  159.9220 H   0  0  0  0  0  0  0  0  0  0  0  0
  153.4634  142.5576  158.3574 H   0  0  0  0  0  0  0  0  0  0  0  0
  151.3446  144.6462  158.9312 H   0  0  0  0  0  0  0  0  0  0  0  0
  152.8067  144.8445  157.9631 H   0  0  0  0  0  0  0  0  0  0  0  0
  151.8800  143.5179  156.1604 H   0  0  0  0  0  0  0  0  0  0  0  0
  150.4269  144.3410  156.7512 H   0  0  0  0  0  0  0  0  0  0  0  0
  148.7838  141.8277  153.4646 H   0  0  0  0  0  0  0  0  0  0  0  0
  145.7351  137.0191  150.0579 H   0  0  0  0  0  0  0  0  0  0  0  0
  146.7941  135.8189  150.7615 H   0  0  0  0  0  0  0  0  0  0  0  0
  144.9332  134.7049  149.6168 H   0  0  0  0  0  0  0  0  0  0  0  0
  143.7462  135.6118  150.5346 H   0  0  0  0  0  0  0  0  0  0  0  0
  145.7032  133.7411  151.6414 H   0  0  0  0  0  0  0  0  0  0  0  0
  149.8748  142.9917  155.1211 H   0  0  0  0  0  0  0  0  0  0  0  0
  1  2  1  0  0  0  0
  1 26  1  0  0  0  0
  2  3  2  0  0  0  0
  2  4  1  0  0  0  0
  4  5  1  0  0  0  0
  4 27  1  0  0  0  0
  4 28  1  0  0  0  0
  5 25  1  0  0  0  0
  5  6  1  0  0  0  0
  5 51  1  0  0  0  0
  6  7  1  0  0  0  0
  6 29  1  0  0  0  0
  6 30  1  0  0  0  0
  7  8  1  0  0  0  0
  7 31  1  0  0  0  0
  7 32  1  0  0  0  0
  8  9  1  0  0  0  0
  8 24  1  0  0  0  0
  8 33  1  0  0  0  0
  9 10  1  0  0  0  0
  9 34  1  0  0  0  0
 10 11  2  0  0  0  0
 10 12  1  0  0  0  0
 12 13  1  0  0  0  0
 12 35  1  0  0  0  0
 13 23  1  0  0  0  0
 13 14  2  0  0  0  0
 14 15  1  0  0  0  0
 14 36  1  0  0  0  0
 15 16  2  0  0  0  0
 15 37  1  0  0  0  0
 16 17  1  0  0  0  0
 16 22  1  0  0  0  0
 17 21  1  0  0  0  0
 17 18  1  0  0  0  0
 18 19  1  0  0  0  0
 18 38  1  0  0  0  0
 18 39  1  0  0  0  0
 19 20  1  0  0  0  0
 19 40  1  0  0  0  0
 19 41  1  0  0  0  0
 20 21  1  0  0  0  0
 20 42  1  0  0  0  0
 20 43  1  0  0  0  0
 21 44  1  0  0  0  0
 21 45  1  0  0  0  0
 22 23  2  0  0  0  0
 22 52  1  0  0  0  0
 23 46  1  0  0  0  0
 24 25  1  0  0  0  0
 24 47  1  0  0  0  0
 24 48  1  0  0  0  0
 25 49  1  0  0  0  0
 25 50  1  0  0  0  0
M  CHG  1   1  -1
M  CHG  1   5   1
M  CHG  1  22   1
M  END
> <s_m_source_file>
AV-unprocessed.smi

> <i_m_source_file_index>
1911

> <i_lp_mmshare_version>
43012

> <i_f3d_flags>
0

> <s_epik_input>
W05IMl1DKD1PKVtDSDJdTjFbQ0gyXVtDSDJdW0NIXShbQ0gyXVtDSDJdMSlbTkhdQyg9TylbTkhdYzJbY0hdW2NIXWMobltjSF0yKU4zW0NIMl1bQ0gyXVtDSDJdW0NIMl0z

> <s_epik_cmdline>
J2VwaWtfcHl0aG9uJywgJy1waCcsICc3LjAnLCAnLXRuJywgJzgnLCAnLW1hJywgJzIwMCcsICctbWV0YWxfYmluZGluZycsICctaW1hZScsICc8aW5maWxlLm1hZT4nLCAnLW9tYWUnLCAnPG91dGZpbGUubWFlPic=

> <r_lp_tautomer_probability>
0.999994

> <r_epik_Ionization_Penalty>
6.97817

> <r_epik_Ionization_Penalty_Charging>
6.97815

> <r_epik_Ionization_Penalty_Neutral>
1.89299e-05

> <r_epik_State_Penalty>
7.80985

> <r_epik_Charging_Adjusted_Penalty>
14.788

> <i_epik_Tot_Q>
1

> <i_epik_Tot_abs_Q>
3

> <r_epik_Metal_State_Penalty>
3.85727

> <b_epik_Metal_Only>
1

> <s_lp_Force_Field>
OPLS_2005

> <r_lp_Energy>
40.2861

> <b_lp_Chiralities_Consistent>
1

> <s_lp_Variant>
AV-unprocessed.smi:1911-9

> <Gold.Version>
5.8.1

> <Gold.Id.Protein>
6NUR|6NUR_protein|mol2

> <Gold.PLP.Fitness>
56.5371

> <Gold.PLP.PLP>
-45.6338

> <Gold.PLP.part.hbond>
-6.0000

> <Gold.PLP.part.metal>
0.0000

> <Gold.PLP.part.buried>
-5.3261

> <Gold.PLP.part.nonpolar>
-37.0045

> <Gold.PLP.part.repulsive>
1.6819

> <Gold.PLP.ligand.clash>
0.0000

> <Gold.PLP.ligand.torsion>
1.0822

> <Gold.PLP.Chemscore.Hbond>
4.2708

> <Gold.PLP.Chemscore.CHOScore>
0.0000

> <Gold.PLP.Chemscore.Metal>
0.0000

> <Gold.Chemscore.Hbonds>
donor molecule, donor type, donor heavy atom, donor atom, acceptor molecule, acceptor atom, score
      L1  H     1    26       P1 10186  0.88
      L1  H    12    35       P1  7957  1.00
      L1  H    22    52       P1  8028  1.18
      P1  H 10785 10796       L1     1  1.00

> <Gold.PLP.Chemscore.Internal.Correction>
0.2553

> <Gold.Rescore>
     Score         DG    S(hbond)    S(metal)    S(lipo)     H(rot)  DE(clash)    DE(int)     intcor
     17.01     -22.00       3.07        0.00      95.16       1.90       1.37       3.62       ----

> <Gold.Chemscore.Fitness>
17.0104

> <Gold.Chemscore.DG>
-21.9958

> <Gold.Chemscore.ZeroCoef>
-5.4800

> <Gold.Chemscore.Hbond>
3.0659

> <Gold.Chemscore.Metal>
0.0000

> <Gold.Chemscore.Lipo>
95.1647

> <Gold.Chemscore.Internal_Hbond>
0.0000

> <Gold.Chemscore.DEClash>
1.3685

> <Gold.Chemscore.DEInternal>
3.6168

> <Gold.Chemscore.Rot>
1.8979

> <Gold.Chemscore.Internal.Correction>
   9.000000E+99

> <Gold.Chemscore.Hbonds>
donor molecule, donor type, donor heavy atom, donor atom, acceptor molecule, acceptor atom, score
      L1  H     1    26       P1 10186  0.85
      L1  H    12    35       P1  7957  0.93
      L1  H    22    52       P1  8028  0.56
      P1  H 10785 10796       L1     1  0.67

> <Gold.Chemscore.Hbond.Weighted>
-10.2402

> <Gold.Chemscore.Metal.Weighted>
-0.0000

> <Gold.Chemscore.Lipo.Weighted>
-11.1343

> <Gold.Chemscore.Internal_Hbond.Weighted>
0.0000

> <Gold.Chemscore.DEClash.Weighted>
1.3685

> <Gold.Chemscore.DEInternal.Weighted>
3.6168

> <Gold.Chemscore.Rot.Weighted>
4.8587

> <Gold.Chemscore.Internal.Correction.Weighted>
   9.000000E+99

> <Gold.Protein.RotatedTorsions>
[ 6907 6896 6895 6894 ] final  116.01 input  -60.11 | X-H torsion
[ 7974 7965 7964 7962 ] final   -5.45 input  175.53 | X-H torsion
[ 8008 7997 7996 7995 ] final   10.24 input   59.86 | X-H torsion
[ 10167 10162 10161 10158 ] final  -21.47 input  -65.29 | X-H torsion
[ 10718 10713 10712 10709 ] final   13.99 input   66.30 | X-H torsion
[ 10763 10752 10751 10750 ] final  -11.80 input  -60.55 | X-H torsion
[ 11005 11000 10999 10996 ] final -169.16 input  -57.11 | X-H torsion

> <Gold.Protein.ActiveResidues>
 VAL166  LYS551  ARG553  GLY616  TRP617  ASP618  TYR619  PRO620  LYS621  CYS622 
 ASP623  PHE694  ASN695  SER759  ASP760  ASP761  ALA762  ILE779  LEU786  VAL792 
 PHE793  MET794  SER795  GLU796  ALA797  LYS798  CYS799  TRP800  GLU811  SER814 

> <Gold.Protein.RotatedAtoms>
  152.4705  133.8019  159.6957 H   0  0  0  0  0  0  0  0  0  0  0  0  # atno 6907 bound_to 6896
  150.8692  133.7521  159.2973 H   0  0  0  0  0  0  0  0  0  0  0  0  # atno 6908 bound_to 6896
  151.5061  135.1067  159.9894 H   0  0  0  0  0  0  0  0  0  0  0  0  # atno 6909 bound_to 6896
  146.2352  140.2023  142.8334 H   0  0  0  0  0  0  0  0  0  0  0  0  # atno 7974 bound_to 7965
  154.7907  140.2835  155.5993 H   0  0  0  0  0  0  0  0  0  0  0  0  # atno 8008 bound_to 7997
  156.2964  140.2605  156.2683 H   0  0  0  0  0  0  0  0  0  0  0  0  # atno 8009 bound_to 7997
  154.9673  140.0376  157.2208 H   0  0  0  0  0  0  0  0  0  0  0  0  # atno 8010 bound_to 7997
  140.7282  143.4625  151.0359 H   0  0  0  0  0  0  0  0  0  0  0  0  # atno 10167 bound_to 10162
  157.0326  130.6199  149.5738 H   0  0  0  0  0  0  0  0  0  0  0  0  # atno 10718 bound_to 10713
  153.4891  135.7017  153.5894 H   0  0  0  0  0  0  0  0  0  0  0  0  # atno 10763 bound_to 10752
  153.4075  135.3857  155.2028 H   0  0  0  0  0  0  0  0  0  0  0  0  # atno 10764 bound_to 10752
  154.8718  135.3896  154.4349 H   0  0  0  0  0  0  0  0  0  0  0  0  # atno 10765 bound_to 10752
  140.5338  134.5590  157.5082 H   0  0  0  0  0  0  0  0  0  0  0  0  # atno 11005 bound_to 11000
  144.9772  140.8425  143.5419 LP  0  0  0  0  0  0  0  0  0  0  0  0  # atno 17320 bound_to 7965
  145.2012  139.2251  143.5192 LP  0  0  0  0  0  0  0  0  0  0  0  0  # atno 17321 bound_to 7965
  139.8311  143.7690  152.3180 LP  0  0  0  0  0  0  0  0  0  0  0  0  # atno 17342 bound_to 10162
  139.7806  144.7446  151.0094 LP  0  0  0  0  0  0  0  0  0  0  0  0  # atno 17343 bound_to 10162
  156.0064  130.5151  150.7845 LP  0  0  0  0  0  0  0  0  0  0  0  0  # atno 17370 bound_to 10713
  157.5166  131.0929  151.0131 LP  0  0  0  0  0  0  0  0  0  0  0  0  # atno 17371 bound_to 10713
  139.9540  134.7567  156.0384 LP  0  0  0  0  0  0  0  0  0  0  0  0  # atno 17394 bound_to 11000
  141.1266  133.6597  156.3353 LP  0  0  0  0  0  0  0  0  0  0  0  0  # atno 17395 bound_to 11000

$$$$
