AV-unprocessed.smi:3079|AV-procd|sdf|11737|dock2
  -GOLD-   2272017133D 1   1.00000     0.00000
 Structure written by MMmdl.
 24 25  0  0  0  0  0  0  0  0  2 V2000
  149.3116  138.6462  153.3648 N   0  3  0  0  0  0  0  0  0  0  0  0
  150.4034  139.0002  154.2868 C   0  0  0  0  0  0  0  0  0  0  0  0
  150.1156  140.3196  155.0150 C   0  0  0  0  0  0  0  0  0  0  0  0
  150.9725  140.5003  156.2227 C   0  0  0  0  0  0  0  0  0  0  0  0
  150.9139  141.5769  157.0103 N   0  0  0  0  0  0  0  0  0  0  0  0
  151.7901  141.4978  158.0966 C   0  0  0  0  0  0  0  0  0  0  0  0
  151.8648  142.6320  159.0718 C   0  0  0  0  0  0  0  0  0  0  0  0
  153.0892  143.5147  159.1505 C   0  0  0  0  0  0  0  0  0  0  0  0
  152.7763  142.5565  160.2741 C   0  0  0  0  0  0  0  0  0  0  0  0
  152.5131  140.3312  158.1249 C   0  0  0  0  0  0  0  0  0  0  0  0
  152.1102  139.2844  156.7919 S   0  0  0  0  0  0  0  0  0  0  0  0
  148.4246  138.7611  153.8344 H   0  0  0  0  0  0  0  0  0  0  0  0
  149.4145  137.6850  153.0720 H   0  0  0  0  0  0  0  0  0  0  0  0
  150.5300  138.1901  155.0057 H   0  0  0  0  0  0  0  0  0  0  0  0
  151.3311  139.0754  153.7185 H   0  0  0  0  0  0  0  0  0  0  0  0
  150.2804  141.1646  154.3455 H   0  0  0  0  0  0  0  0  0  0  0  0
  149.0692  140.3624  155.3202 H   0  0  0  0  0  0  0  0  0  0  0  0
  150.8969  143.1101  159.2083 H   0  0  0  0  0  0  0  0  0  0  0  0
  153.9361  143.2735  158.5109 H   0  0  0  0  0  0  0  0  0  0  0  0
  152.9317  144.5752  159.3353 H   0  0  0  0  0  0  0  0  0  0  0  0
  152.4101  142.9779  161.2079 H   0  0  0  0  0  0  0  0  0  0  0  0
  153.4112  141.6783  160.3752 H   0  0  0  0  0  0  0  0  0  0  0  0
  153.2530  140.0236  158.8491 H   0  0  0  0  0  0  0  0  0  0  0  0
  149.3435  139.2506  152.5561 H   0  0  0  0  0  0  0  0  0  0  0  0
  1  2  1  0  0  0  0
  1 12  1  0  0  0  0
  1 13  1  0  0  0  0
  1 24  1  0  0  0  0
  2  3  1  0  0  0  0
  2 14  1  0  0  0  0
  2 15  1  0  0  0  0
  3  4  1  0  0  0  0
  3 16  1  0  0  0  0
  3 17  1  0  0  0  0
  4 11  1  0  0  0  0
  4  5  2  0  0  0  0
  5  6  1  0  0  0  0
  6  7  1  0  0  0  0
  6 10  2  0  0  0  0
  7  9  1  0  0  0  0
  7  8  1  0  0  0  0
  7 18  1  0  0  0  0
  8  9  1  0  0  0  0
  8 19  1  0  0  0  0
  8 20  1  0  0  0  0
  9 21  1  0  0  0  0
  9 22  1  0  0  0  0
 10 11  1  0  0  0  0
 10 23  1  0  0  0  0
M  CHG  1   1   1
M  END
> <s_m_source_file>
AV-unprocessed.smi

> <i_m_source_file_index>
3079

> <i_lp_mmshare_version>
43012

> <i_f3d_flags>
0

> <s_epik_input>
W05IMl1bQ0gyXVtDSDJdYzFuYyhbY0hdczEpW0NIXTJbQ0gyXVtDSDJdMg==

> <s_epik_cmdline>
J2VwaWtfcHl0aG9uJywgJy1waCcsICc3LjAnLCAnLXRuJywgJzgnLCAnLW1hJywgJzIwMCcsICctbWV0YWxfYmluZGluZycsICctaW1hZScsICc8aW5maWxlLm1hZT4nLCAnLW9tYWUnLCAnPG91dGZpbGUubWFlPic=

> <r_lp_tautomer_probability>
1

> <r_epik_Ionization_Penalty>
0.00466735

> <r_epik_Ionization_Penalty_Charging>
0.00465044

> <r_epik_Ionization_Penalty_Neutral>
1.6915e-05

> <r_epik_State_Penalty>
-0

> <r_epik_Charging_Adjusted_Penalty>
0.00465044

> <i_epik_Tot_Q>
1

> <i_epik_Tot_abs_Q>
1

> <r_epik_Metal_State_Penalty>
-0

> <b_epik_Metal_Only>
0

> <s_lp_Force_Field>
OPLS_2005

> <r_lp_Energy>
-1.43879

> <b_lp_Chiralities_Consistent>
1

> <s_lp_Variant>
AV-unprocessed.smi:3079-1

> <Gold.Version>
5.8.1

> <Gold.Id.Protein>
6NUR|6NUR_protein|mol2

> <Gold.PLP.Fitness>
34.8544

> <Gold.PLP.PLP>
-26.0443

> <Gold.PLP.part.hbond>
-2.0000

> <Gold.PLP.part.metal>
0.0000

> <Gold.PLP.part.buried>
-1.8526

> <Gold.PLP.part.nonpolar>
-21.9122

> <Gold.PLP.part.repulsive>
0.1415

> <Gold.PLP.ligand.clash>
0.0000

> <Gold.PLP.ligand.torsion>
0.1612

> <Gold.PLP.Chemscore.Hbond>
3.0000

> <Gold.PLP.Chemscore.CHOScore>
0.0000

> <Gold.PLP.Chemscore.Metal>
0.0000

> <Gold.Chemscore.Hbonds>
donor molecule, donor type, donor heavy atom, donor atom, acceptor molecule, acceptor atom, score
      L1  H     1    13       P1  7948  2.00
      L1  H     1    24       P1  7957  1.00

> <Gold.PLP.Chemscore.Internal.Correction>
0.1326

> <Gold.Rescore>
     Score         DG    S(hbond)    S(metal)    S(lipo)     H(rot)  DE(clash)    DE(int)     intcor
     16.95     -17.14       1.96        0.00      75.86       1.47       0.02       0.17       ----

> <Gold.Chemscore.Fitness>
16.9468

> <Gold.Chemscore.DG>
-17.1371

> <Gold.Chemscore.ZeroCoef>
-5.4800

> <Gold.Chemscore.Hbond>
1.9604

> <Gold.Chemscore.Metal>
0.0000

> <Gold.Chemscore.Lipo>
75.8647

> <Gold.Chemscore.Internal_Hbond>
0.0000

> <Gold.Chemscore.DEClash>
0.0234

> <Gold.Chemscore.DEInternal>
0.1668

> <Gold.Chemscore.Rot>
1.4714

> <Gold.Chemscore.Internal.Correction>
   9.000000E+99

> <Gold.Chemscore.Hbonds>
donor molecule, donor type, donor heavy atom, donor atom, acceptor molecule, acceptor atom, score
      L1  H     1    13       P1  7948  0.87
      L1  H     1    24       P1  7957  0.99

> <Gold.Chemscore.Hbond.Weighted>
-6.5477

> <Gold.Chemscore.Metal.Weighted>
-0.0000

> <Gold.Chemscore.Lipo.Weighted>
-8.8762

> <Gold.Chemscore.Internal_Hbond.Weighted>
0.0000

> <Gold.Chemscore.DEClash.Weighted>
0.0234

> <Gold.Chemscore.DEInternal.Weighted>
0.1668

> <Gold.Chemscore.Rot.Weighted>
3.7668

> <Gold.Chemscore.Internal.Correction.Weighted>
   9.000000E+99

> <Gold.Protein.RotatedTorsions>
[ 6907 6896 6895 6894 ] final -172.08 input  -60.11 | X-H torsion
[ 7974 7965 7964 7962 ] final   68.07 input  175.53 | X-H torsion
[ 8008 7997 7996 7995 ] final  -53.51 input   59.86 | X-H torsion
[ 10167 10162 10161 10158 ] final -109.79 input  -65.29 | X-H torsion
[ 10718 10713 10712 10709 ] final    9.27 input   66.30 | X-H torsion
[ 10763 10752 10751 10750 ] final  110.74 input  -60.55 | X-H torsion
[ 11005 11000 10999 10996 ] final  -73.54 input  -57.11 | X-H torsion

> <Gold.Protein.ActiveResidues>
 VAL166  LYS551  ARG553  GLY616  TRP617  ASP618  TYR619  PRO620  LYS621  CYS622 
 ASP623  PHE694  ASN695  SER759  ASP760  ASP761  ALA762  ILE779  LEU786  VAL792 
 PHE793  MET794  SER795  GLU796  ALA797  LYS798  CYS799  TRP800  GLU811  SER814 

> <Gold.Protein.RotatedAtoms>
  151.5341  133.3444  159.2923 H   0  0  0  0  0  0  0  0  0  0  0  0  # atno 6907 bound_to 6896
  150.8575  134.7921  159.7068 H   0  0  0  0  0  0  0  0  0  0  0  0  # atno 6908 bound_to 6896
  152.4604  134.5205  159.9832 H   0  0  0  0  0  0  0  0  0  0  0  0  # atno 6909 bound_to 6896
  145.8070  139.3012  143.1121 H   0  0  0  0  0  0  0  0  0  0  0  0  # atno 7974 bound_to 7965
  154.4135  140.1198  156.5166 H   0  0  0  0  0  0  0  0  0  0  0  0  # atno 8008 bound_to 7997
  155.6745  140.3496  155.4812 H   0  0  0  0  0  0  0  0  0  0  0  0  # atno 8009 bound_to 7997
  155.9604  140.1122  157.0890 H   0  0  0  0  0  0  0  0  0  0  0  0  # atno 8010 bound_to 7997
  140.1515  143.4195  152.1491 H   0  0  0  0  0  0  0  0  0  0  0  0  # atno 10167 bound_to 10162
  156.9638  130.5943  149.5664 H   0  0  0  0  0  0  0  0  0  0  0  0  # atno 10718 bound_to 10713
  153.4532  135.3739  155.2296 H   0  0  0  0  0  0  0  0  0  0  0  0  # atno 10763 bound_to 10752
  154.8756  135.3891  154.4013 H   0  0  0  0  0  0  0  0  0  0  0  0  # atno 10764 bound_to 10752
  153.4575  135.7086  153.6134 H   0  0  0  0  0  0  0  0  0  0  0  0  # atno 10765 bound_to 10752
  141.1624  133.6881  156.7227 H   0  0  0  0  0  0  0  0  0  0  0  0  # atno 11005 bound_to 11000
  145.9818  140.8676  143.0110 LP  0  0  0  0  0  0  0  0  0  0  0  0  # atno 17320 bound_to 7965
  144.6762  140.2091  143.7379 LP  0  0  0  0  0  0  0  0  0  0  0  0  # atno 17321 bound_to 7965
  139.5424  144.7268  151.4692 LP  0  0  0  0  0  0  0  0  0  0  0  0  # atno 17342 bound_to 10162
  140.6700  143.8315  150.6987 LP  0  0  0  0  0  0  0  0  0  0  0  0  # atno 17343 bound_to 10162
  156.0311  130.5402  150.8536 LP  0  0  0  0  0  0  0  0  0  0  0  0  # atno 17370 bound_to 10713
  157.5639  131.0946  150.9518 LP  0  0  0  0  0  0  0  0  0  0  0  0  # atno 17371 bound_to 10713
  140.2804  134.8321  157.3928 LP  0  0  0  0  0  0  0  0  0  0  0  0  # atno 17394 bound_to 11000
  140.1438  134.4937  155.8011 LP  0  0  0  0  0  0  0  0  0  0  0  0  # atno 17395 bound_to 11000

$$$$
