AV-unprocessed.smi:370|AV-procd|sdf|2437|dock6
  -GOLD-   2262022373D 1   1.00000     0.00000
 Structure written by MMmdl.
 43 44  0  0  0  0  0  0  0  0  2 V2000
  145.1517  132.0945  150.0949 C   0  0  0  0  0  0  0  0  0  0  0  0
  145.2009  133.4660  150.6754 C   0  0  0  0  0  0  0  0  0  0  0  0
  146.1195  134.1166  151.4501 C   0  0  0  0  0  0  0  0  0  0  0  0
  145.5306  135.3951  151.6380 C   0  0  0  0  0  0  0  0  0  0  0  0
  146.1876  136.3943  152.4007 N   0  0  0  0  0  0  0  0  0  0  0  0
  145.6252  137.3012  153.2174 C   0  0  0  0  0  0  0  0  0  0  0  0
  144.4213  137.3879  153.4599 O   0  0  0  0  0  0  0  0  0  0  0  0
  146.5468  138.1209  153.7449 N   0  0  0  0  0  0  0  0  0  0  0  0
  146.2775  139.2163  154.6774 C   0  0  0  0  0  0  0  0  0  0  0  0
  147.1360  140.4962  154.4318 C   0  0  0  0  0  0  0  0  0  0  0  0
  147.1015  140.8007  152.9105 C   0  0  0  0  0  0  0  0  0  0  0  0
  146.5347  141.7178  155.1702 C   0  0  0  0  0  0  0  0  0  0  0  0
  148.5452  140.2208  154.9002 N   0  3  0  0  0  0  0  0  0  0  0  0
  149.3166  139.2096  154.1208 C   0  0  0  0  0  0  0  0  0  0  0  0
  150.6728  138.9191  154.7884 C   0  0  0  0  0  0  0  0  0  0  0  0
  151.4114  140.1216  154.9438 O   0  0  0  0  0  0  0  0  0  0  0  0
  150.7278  141.0491  155.7733 C   0  0  0  0  0  0  0  0  0  0  0  0
  149.3935  141.4293  155.1136 C   0  0  0  0  0  0  0  0  0  0  0  0
  144.3593  135.5148  151.0324 N   0  0  0  0  0  0  0  0  0  0  0  0
  144.1418  134.2787  150.4122 O   0  0  0  0  0  0  0  0  0  0  0  0
  146.0155  131.5080  150.4081 H   0  0  0  0  0  0  0  0  0  0  0  0
  145.1474  132.1363  149.0057 H   0  0  0  0  0  0  0  0  0  0  0  0
  144.2518  131.5707  150.4176 H   0  0  0  0  0  0  0  0  0  0  0  0
  147.0598  133.7359  151.8206 H   0  0  0  0  0  0  0  0  0  0  0  0
  147.1918  136.4276  152.3049 H   0  0  0  0  0  0  0  0  0  0  0  0
  147.5119  137.9740  153.4867 H   0  0  0  0  0  0  0  0  0  0  0  0
  145.2107  139.4328  154.6543 H   0  0  0  0  0  0  0  0  0  0  0  0
  146.4736  138.8367  155.6808 H   0  0  0  0  0  0  0  0  0  0  0  0
  146.0832  140.8985  152.5343 H   0  0  0  0  0  0  0  0  0  0  0  0
  147.5842  140.0113  152.3332 H   0  0  0  0  0  0  0  0  0  0  0  0
  147.5895  141.7453  152.6686 H   0  0  0  0  0  0  0  0  0  0  0  0
  145.5751  142.0103  154.7432 H   0  0  0  0  0  0  0  0  0  0  0  0
  147.1850  142.5900  155.1048 H   0  0  0  0  0  0  0  0  0  0  0  0
  146.3575  141.5123  156.2262 H   0  0  0  0  0  0  0  0  0  0  0  0
  148.7887  138.2596  154.0609 H   0  0  0  0  0  0  0  0  0  0  0  0
  149.4703  139.5623  153.1004 H   0  0  0  0  0  0  0  0  0  0  0  0
  150.5321  138.4390  155.7584 H   0  0  0  0  0  0  0  0  0  0  0  0
  151.2513  138.2284  154.1747 H   0  0  0  0  0  0  0  0  0  0  0  0
  150.5695  140.6286  156.7678 H   0  0  0  0  0  0  0  0  0  0  0  0
  151.3513  141.9347  155.8971 H   0  0  0  0  0  0  0  0  0  0  0  0
  149.6014  141.9164  154.1602 H   0  0  0  0  0  0  0  0  0  0  0  0
  148.8984  142.1651  155.7432 H   0  0  0  0  0  0  0  0  0  0  0  0
  148.4316  139.8052  155.8138 H   0  0  0  0  0  0  0  0  0  0  0  0
  1  2  1  0  0  0  0
  1 21  1  0  0  0  0
  1 22  1  0  0  0  0
  1 23  1  0  0  0  0
  2 20  1  0  0  0  0
  2  3  2  0  0  0  0
  3  4  1  0  0  0  0
  3 24  1  0  0  0  0
  4  5  1  0  0  0  0
  4 19  2  0  0  0  0
  5  6  1  0  0  0  0
  5 25  1  0  0  0  0
  6  7  2  0  0  0  0
  6  8  1  0  0  0  0
  8  9  1  0  0  0  0
  8 26  1  0  0  0  0
  9 10  1  0  0  0  0
  9 27  1  0  0  0  0
  9 28  1  0  0  0  0
 10 11  1  0  0  0  0
 10 12  1  0  0  0  0
 10 13  1  0  0  0  0
 11 29  1  0  0  0  0
 11 30  1  0  0  0  0
 11 31  1  0  0  0  0
 12 32  1  0  0  0  0
 12 33  1  0  0  0  0
 12 34  1  0  0  0  0
 13 18  1  0  0  0  0
 13 14  1  0  0  0  0
 13 43  1  0  0  0  0
 14 15  1  0  0  0  0
 14 35  1  0  0  0  0
 14 36  1  0  0  0  0
 15 16  1  0  0  0  0
 15 37  1  0  0  0  0
 15 38  1  0  0  0  0
 16 17  1  0  0  0  0
 17 18  1  0  0  0  0
 17 39  1  0  0  0  0
 17 40  1  0  0  0  0
 18 41  1  0  0  0  0
 18 42  1  0  0  0  0
 19 20  1  0  0  0  0
M  CHG  1  13   1
M  END
> <s_m_source_file>
AV-unprocessed.smi

> <i_m_source_file_index>
370

> <i_lp_mmshare_version>
43012

> <i_f3d_flags>
0

> <s_epik_input>
W0NIM11jMVtjSF1jKG5vMSlbTkhdQyg9TylbTkhdW0NIMl1DKFtDSDNdKShbQ0gzXSlOMltDSDJdW0NIMl1PW0NIMl1bQ0gyXTI=

> <s_epik_cmdline>
J2VwaWtfcHl0aG9uJywgJy1waCcsICc3LjAnLCAnLXRuJywgJzgnLCAnLW1hJywgJzIwMCcsICctbWV0YWxfYmluZGluZycsICctaW1hZScsICc8aW5maWxlLm1hZT4nLCAnLW9tYWUnLCAnPG91dGZpbGUubWFlPic=

> <r_epik_Ionization_Penalty>
0.707076

> <r_epik_Ionization_Penalty_Charging>
0.707039

> <r_epik_Ionization_Penalty_Neutral>
3.67886e-05

> <r_epik_State_Penalty>
0.730276

> <r_epik_Charging_Adjusted_Penalty>
1.43732

> <i_epik_Tot_Q>
1

> <i_epik_Tot_abs_Q>
1

> <r_epik_Metal_State_Penalty>
0.743216

> <b_epik_Metal_Only>
0

> <s_lp_Force_Field>
OPLS_2005

> <r_lp_Energy>
23.7539

> <b_lp_Chiralities_Consistent>
1

> <s_lp_Variant>
AV-unprocessed.smi:370-2

> <Gold.Version>
5.8.1

> <Gold.Id.Protein>
6NUR|6NUR_protein|mol2

> <Gold.PLP.Fitness>
34.9431

> <Gold.PLP.PLP>
-30.5949

> <Gold.PLP.part.hbond>
-2.0000

> <Gold.PLP.part.metal>
0.0000

> <Gold.PLP.part.buried>
-5.0889

> <Gold.PLP.part.nonpolar>
-24.0384

> <Gold.PLP.part.repulsive>
0.7583

> <Gold.PLP.ligand.clash>
0.0098

> <Gold.PLP.ligand.torsion>
0.8668

> <Gold.PLP.Chemscore.Hbond>
2.0000

> <Gold.PLP.Chemscore.CHOScore>
0.0000

> <Gold.PLP.Chemscore.Metal>
0.0000

> <Gold.Chemscore.Hbonds>
donor molecule, donor type, donor heavy atom, donor atom, acceptor molecule, acceptor atom, score
      L1  H     5    25       P1  7948  1.00
      P1  H  7989  7998       L1    16  1.00

> <Gold.PLP.Chemscore.Internal.Correction>
0.0917

> <Gold.Rescore>
     Score         DG    S(hbond)    S(metal)    S(lipo)     H(rot)  DE(clash)    DE(int)     intcor
     15.03     -16.98       2.00        0.00      76.13       1.60       0.79       1.17       ----

> <Gold.Chemscore.Fitness>
15.0273

> <Gold.Chemscore.DG>
-16.9804

> <Gold.Chemscore.ZeroCoef>
-5.4800

> <Gold.Chemscore.Hbond>
2.0012

> <Gold.Chemscore.Metal>
0.0000

> <Gold.Chemscore.Lipo>
76.1275

> <Gold.Chemscore.Internal_Hbond>
0.0000

> <Gold.Chemscore.DEClash>
0.7874

> <Gold.Chemscore.DEInternal>
1.1657

> <Gold.Chemscore.Rot>
1.5979

> <Gold.Chemscore.Internal.Correction>
   9.000000E+99

> <Gold.Chemscore.Hbonds>
donor molecule, donor type, donor heavy atom, donor atom, acceptor molecule, acceptor atom, score
      L1  H     5    25       P1  7948  1.00
      P1  H  7989  7998       L1    16  0.44

> <Gold.Chemscore.Hbond.Weighted>
-6.6841

> <Gold.Chemscore.Metal.Weighted>
-0.0000

> <Gold.Chemscore.Lipo.Weighted>
-8.9069

> <Gold.Chemscore.Internal_Hbond.Weighted>
0.0000

> <Gold.Chemscore.DEClash.Weighted>
0.7874

> <Gold.Chemscore.DEInternal.Weighted>
1.1657

> <Gold.Chemscore.Rot.Weighted>
4.0906

> <Gold.Chemscore.Internal.Correction.Weighted>
   9.000000E+99

> <Gold.Protein.RotatedTorsions>
[ 6907 6896 6895 6894 ] final  116.54 input  -60.11 | X-H torsion
[ 7974 7965 7964 7962 ] final  -13.81 input  175.53 | X-H torsion
[ 8008 7997 7996 7995 ] final  149.83 input   59.86 | X-H torsion
[ 10167 10162 10161 10158 ] final  -64.51 input  -65.29 | X-H torsion
[ 10718 10713 10712 10709 ] final   89.02 input   66.30 | X-H torsion
[ 10763 10752 10751 10750 ] final    5.06 input  -60.55 | X-H torsion
[ 11005 11000 10999 10996 ] final -163.15 input  -57.11 | X-H torsion

> <Gold.Protein.ActiveResidues>
 VAL166  LYS551  ARG553  GLY616  TRP617  ASP618  TYR619  PRO620  LYS621  CYS622 
 ASP623  PHE694  ASN695  SER759  ASP760  ASP761  ALA762  ILE779  LEU786  VAL792 
 PHE793  MET794  SER795  GLU796  ALA797  LYS798  CYS799  TRP800  GLU811  SER814 

> <Gold.Protein.RotatedAtoms>
  152.4671  133.7947  159.6920 H   0  0  0  0  0  0  0  0  0  0  0  0  # atno 6907 bound_to 6896
  150.8641  133.7591  159.2989 H   0  0  0  0  0  0  0  0  0  0  0  0  # atno 6908 bound_to 6896
  151.5147  135.1069  159.9915 H   0  0  0  0  0  0  0  0  0  0  0  0  # atno 6909 bound_to 6896
  146.2099  140.3257  142.8394 H   0  0  0  0  0  0  0  0  0  0  0  0  # atno 7974 bound_to 7965
  156.2739  140.2091  156.5921 H   0  0  0  0  0  0  0  0  0  0  0  0  # atno 8008 bound_to 7997
  154.6974  140.0524  157.0447 H   0  0  0  0  0  0  0  0  0  0  0  0  # atno 8009 bound_to 7997
  155.0782  140.3184  155.4612 H   0  0  0  0  0  0  0  0  0  0  0  0  # atno 8010 bound_to 7997
  140.5796  143.2326  151.6370 H   0  0  0  0  0  0  0  0  0  0  0  0  # atno 10167 bound_to 10162
  157.6953  131.0317  150.3363 H   0  0  0  0  0  0  0  0  0  0  0  0  # atno 10718 bound_to 10713
  153.2638  135.6926  153.7551 H   0  0  0  0  0  0  0  0  0  0  0  0  # atno 10763 bound_to 10752
  153.6600  135.3362  155.3125 H   0  0  0  0  0  0  0  0  0  0  0  0  # atno 10764 bound_to 10752
  154.8440  135.4475  154.1638 H   0  0  0  0  0  0  0  0  0  0  0  0  # atno 10765 bound_to 10752
  140.6013  134.4945  157.5205 H   0  0  0  0  0  0  0  0  0  0  0  0  # atno 11005 bound_to 11000
  144.8888  140.7496  143.5940 LP  0  0  0  0  0  0  0  0  0  0  0  0  # atno 17320 bound_to 7965
  145.3179  139.1797  143.4603 LP  0  0  0  0  0  0  0  0  0  0  0  0  # atno 17321 bound_to 7965
  139.5162  144.3354  152.0789 LP  0  0  0  0  0  0  0  0  0  0  0  0  # atno 17342 bound_to 10162
  140.2502  144.4177  150.6225 LP  0  0  0  0  0  0  0  0  0  0  0  0  # atno 17343 bound_to 10162
  156.3830  130.3884  149.7087 LP  0  0  0  0  0  0  0  0  0  0  0  0  # atno 17370 bound_to 10713
  156.4463  130.7885  151.2906 LP  0  0  0  0  0  0  0  0  0  0  0  0  # atno 17371 bound_to 10713
  139.9231  134.8109  156.1149 LP  0  0  0  0  0  0  0  0  0  0  0  0  # atno 17394 bound_to 11000
  141.0870  133.6730  156.2458 LP  0  0  0  0  0  0  0  0  0  0  0  0  # atno 17395 bound_to 11000

$$$$
