AV-unprocessed.smi:2655|AV-procd|sdf|10298|dock8
  -GOLD-   2272014313D 1   1.00000     0.00000
 Structure written by MMmdl.
 33 34  0  0  0  0  0  0  0  0  2 V2000
  152.2683  140.7759  158.2904 C   0  0  0  0  0  0  0  0  0  0  0  0
  151.3125  141.1426  157.1921 C   0  0  0  0  0  0  0  0  0  0  0  0
  150.5631  142.2328  157.3216 N   0  0  0  0  0  0  0  0  0  0  0  0
  149.8329  142.2703  156.1909 N   0  0  0  0  0  0  0  0  0  0  0  0
  150.1226  141.2173  155.3624 C   0  0  0  0  0  0  0  0  0  0  0  0
  149.4990  141.0654  154.1798 O   0  5  0  0  0  0  0  0  0  0  0  0
  151.0814  140.4529  155.9614 C   0  0  0  0  0  0  0  0  0  0  0  0
  151.7333  139.1926  155.4631 C   0  0  0  0  0  0  0  0  0  0  0  0
  151.3055  138.8759  154.0217 C   0  0  0  0  0  0  0  0  0  0  0  0
  150.7847  137.5194  153.9041 N   0  0  0  0  0  0  0  0  0  0  0  0
  151.3204  136.4357  154.4835 C   0  0  0  0  0  0  0  0  0  0  0  0
  152.3203  136.4735  155.2006 O   0  0  0  0  0  0  0  0  0  0  0  0
  150.6258  135.3281  154.1729 N   0  0  0  0  0  0  0  0  0  0  0  0
  150.8730  133.9901  154.5743 C   0  0  0  0  0  0  0  0  0  0  0  0
  150.3549  132.8139  153.9582 C   0  0  0  0  0  0  0  0  0  0  0  0
  150.8889  131.8106  154.7164 C   0  0  0  0  0  0  0  0  0  0  0  0
  150.7788  130.3256  154.6562 C   0  0  0  0  0  0  0  0  0  0  0  0
  151.6639  132.3268  155.7078 O   0  0  0  0  0  0  0  0  0  0  0  0
  151.6488  133.7229  155.6088 N   0  0  0  0  0  0  0  0  0  0  0  0
  152.3584  139.6940  158.3876 H   0  0  0  0  0  0  0  0  0  0  0  0
  151.9397  141.1659  159.2543 H   0  0  0  0  0  0  0  0  0  0  0  0
  153.2623  141.1754  158.0899 H   0  0  0  0  0  0  0  0  0  0  0  0
  149.1603  143.0010  156.0074 H   0  0  0  0  0  0  0  0  0  0  0  0
  151.4833  138.3532  156.1127 H   0  0  0  0  0  0  0  0  0  0  0  0
  152.8193  139.2836  155.5054 H   0  0  0  0  0  0  0  0  0  0  0  0
  150.5631  139.5967  153.6745 H   0  0  0  0  0  0  0  0  0  0  0  0
  152.1624  138.9668  153.3534 H   0  0  0  0  0  0  0  0  0  0  0  0
  149.9632  137.3986  153.3301 H   0  0  0  0  0  0  0  0  0  0  0  0
  149.8266  135.4564  153.5699 H   0  0  0  0  0  0  0  0  0  0  0  0
  149.7020  132.7052  153.1057 H   0  0  0  0  0  0  0  0  0  0  0  0
  150.3084  130.0076  153.7255 H   0  0  0  0  0  0  0  0  0  0  0  0
  150.1782  129.9499  155.4848 H   0  0  0  0  0  0  0  0  0  0  0  0
  151.7634  129.8613  154.7126 H   0  0  0  0  0  0  0  0  0  0  0  0
  1 20  1  0  0  0  0
  1 21  1  0  0  0  0
  1 22  1  0  0  0  0
  1  2  1  0  0  0  0
  2  7  1  0  0  0  0
  2  3  2  0  0  0  0
  3  4  1  0  0  0  0
  4 23  1  0  0  0  0
  4  5  1  0  0  0  0
  5  7  2  0  0  0  0
  5  6  1  0  0  0  0
  7  8  1  0  0  0  0
  8  9  1  0  0  0  0
  8 24  1  0  0  0  0
  8 25  1  0  0  0  0
  9 10  1  0  0  0  0
  9 26  1  0  0  0  0
  9 27  1  0  0  0  0
 10 11  1  0  0  0  0
 10 28  1  0  0  0  0
 11 12  2  0  0  0  0
 11 13  1  0  0  0  0
 13 14  1  0  0  0  0
 13 29  1  0  0  0  0
 14 19  2  0  0  0  0
 14 15  1  0  0  0  0
 15 16  2  0  0  0  0
 15 30  1  0  0  0  0
 16 17  1  0  0  0  0
 16 18  1  0  0  0  0
 17 31  1  0  0  0  0
 17 32  1  0  0  0  0
 17 33  1  0  0  0  0
 18 19  1  0  0  0  0
M  CHG  1   6  -1
M  END
> <s_m_source_file>
AV-unprocessed.smi

> <i_m_source_file_index>
2655

> <i_lp_mmshare_version>
43012

> <i_f3d_flags>
0

> <s_epik_input>
W0NIM11DMT1OW05IXUMoPU8pW0NASF0xW0NIMl1bQ0gyXVtOSF1DKD1PKVtOSF1jMltjSF1jKFtDSDNdKW9uMg==

> <s_epik_cmdline>
J2VwaWtfcHl0aG9uJywgJy1waCcsICc3LjAnLCAnLXRuJywgJzgnLCAnLW1hJywgJzIwMCcsICctbWV0YWxfYmluZGluZycsICctaW1hZScsICc8aW5maWxlLm1hZT4nLCAnLW9tYWUnLCAnPG91dGZpbGUubWFlPic=

> <r_lp_tautomer_probability>
0.99495

> <r_epik_Ionization_Penalty>
1.68606

> <r_epik_Ionization_Penalty_Charging>
0.00156442

> <r_epik_Ionization_Penalty_Neutral>
1.68449

> <r_epik_State_Penalty>
0.315845

> <r_epik_Charging_Adjusted_Penalty>
0.31741

> <i_epik_Tot_Q>
-1

> <i_epik_Tot_abs_Q>
1

> <r_epik_Metal_State_Penalty>
0.0445802

> <b_epik_Metal_Only>
0

> <s_lp_Force_Field>
OPLS_2005

> <r_lp_Energy>
-3.25288

> <b_lp_Chiralities_Consistent>
1

> <s_lp_Variant>
AV-unprocessed.smi:2655-1

> <Gold.Version>
5.8.1

> <Gold.Id.Protein>
6NUR|6NUR_protein|mol2

> <Gold.PLP.Fitness>
44.1101

> <Gold.PLP.PLP>
-31.8527

> <Gold.PLP.part.hbond>
-7.5732

> <Gold.PLP.part.metal>
0.0000

> <Gold.PLP.part.buried>
-2.1141

> <Gold.PLP.part.nonpolar>
-21.5262

> <Gold.PLP.part.repulsive>
0.6079

> <Gold.PLP.ligand.clash>
0.0000

> <Gold.PLP.ligand.torsion>
0.5955

> <Gold.PLP.Chemscore.Hbond>
4.4798

> <Gold.PLP.Chemscore.CHOScore>
0.0000

> <Gold.PLP.Chemscore.Metal>
0.0000

> <Gold.Chemscore.Hbonds>
donor molecule, donor type, donor heavy atom, donor atom, acceptor molecule, acceptor atom, score
      L1  H     4    23       P1  8028  0.94
      L1  H    10    28       P1  7948  0.80
      L1  H    13    29       P1  7948  0.50
      P1  H  7989  7998       L1     6  0.01
      P1  H  8011  8017       L1     6  0.25
      P1  H 10752 10764       L1    12  0.32

> <Gold.PLP.Chemscore.Internal.Correction>
0.0088

> <Gold.Rescore>
     Score         DG    S(hbond)    S(metal)    S(lipo)     H(rot)  DE(clash)    DE(int)     intcor
     11.88     -16.80       3.14        0.00      47.57       1.85       0.15       4.77       ----

> <Gold.Chemscore.Fitness>
11.8776

> <Gold.Chemscore.DG>
-16.8025

> <Gold.Chemscore.ZeroCoef>
-5.4800

> <Gold.Chemscore.Hbond>
3.1420

> <Gold.Chemscore.Metal>
0.0000

> <Gold.Chemscore.Lipo>
47.5656

> <Gold.Chemscore.Internal_Hbond>
0.0000

> <Gold.Chemscore.DEClash>
0.1503

> <Gold.Chemscore.DEInternal>
4.7746

> <Gold.Chemscore.Rot>
1.8504

> <Gold.Chemscore.Internal.Correction>
   9.000000E+99

> <Gold.Chemscore.Hbonds>
donor molecule, donor type, donor heavy atom, donor atom, acceptor molecule, acceptor atom, score
      L1  H     4    23       P1  8028  0.91
      L1  H    10    28       P1  7948  0.30
      L1  H    13    29       P1  7948  0.02
      P1  H  8011  8017       L1     6  0.25
      P1  H 10752 10764       L1    12  0.31

> <Gold.Chemscore.Hbond.Weighted>
-10.4943

> <Gold.Chemscore.Metal.Weighted>
-0.0000

> <Gold.Chemscore.Lipo.Weighted>
-5.5652

> <Gold.Chemscore.Internal_Hbond.Weighted>
0.0000

> <Gold.Chemscore.DEClash.Weighted>
0.1503

> <Gold.Chemscore.DEInternal.Weighted>
4.7746

> <Gold.Chemscore.Rot.Weighted>
4.7369

> <Gold.Chemscore.Internal.Correction.Weighted>
   9.000000E+99

> <Gold.Protein.RotatedTorsions>
[ 6907 6896 6895 6894 ] final  176.27 input  -60.11 | X-H torsion
[ 7974 7965 7964 7962 ] final  175.93 input  175.53 | X-H torsion
[ 8008 7997 7996 7995 ] final   34.23 input   59.86 | X-H torsion
[ 10167 10162 10161 10158 ] final  128.37 input  -65.29 | X-H torsion
[ 10718 10713 10712 10709 ] final  -10.13 input   66.30 | X-H torsion
[ 10763 10752 10751 10750 ] final  -25.62 input  -60.55 | X-H torsion
[ 11005 11000 10999 10996 ] final  103.36 input  -57.11 | X-H torsion

> <Gold.Protein.ActiveResidues>
 VAL166  LYS551  ARG553  GLY616  TRP617  ASP618  TYR619  PRO620  LYS621  CYS622 
 ASP623  PHE694  ASN695  SER759  ASP760  ASP761  ALA762  ILE779  LEU786  VAL792 
 PHE793  MET794  SER795  GLU796  ALA797  LYS798  CYS799  TRP800  GLU811  SER814 

> <Gold.Protein.RotatedAtoms>
  151.7229  133.3315  159.3319 H   0  0  0  0  0  0  0  0  0  0  0  0  # atno 6907 bound_to 6896
  150.7645  134.6432  159.6258 H   0  0  0  0  0  0  0  0  0  0  0  0  # atno 6908 bound_to 6896
  152.3641  134.6832  160.0249 H   0  0  0  0  0  0  0  0  0  0  0  0  # atno 6909 bound_to 6896
  144.7193  140.0020  143.6440 H   0  0  0  0  0  0  0  0  0  0  0  0  # atno 7974 bound_to 7965
  155.1514  140.3275  155.4430 H   0  0  0  0  0  0  0  0  0  0  0  0  # atno 8008 bound_to 7997
  156.2573  140.1976  156.6576 H   0  0  0  0  0  0  0  0  0  0  0  0  # atno 8009 bound_to 7997
  154.6470  140.0563  156.9899 H   0  0  0  0  0  0  0  0  0  0  0  0  # atno 8010 bound_to 7997
  139.5531  144.6828  151.4264 H   0  0  0  0  0  0  0  0  0  0  0  0  # atno 10167 bound_to 10162
  156.6780  130.5028  149.5980 H   0  0  0  0  0  0  0  0  0  0  0  0  # atno 10718 bound_to 10713
  153.7028  135.6955  153.5058 H   0  0  0  0  0  0  0  0  0  0  0  0  # atno 10763 bound_to 10752
  153.2330  135.4331  155.0615 H   0  0  0  0  0  0  0  0  0  0  0  0  # atno 10764 bound_to 10752
  154.8339  135.3489  154.6567 H   0  0  0  0  0  0  0  0  0  0  0  0  # atno 10765 bound_to 10752
  139.8783  134.9260  156.5198 H   0  0  0  0  0  0  0  0  0  0  0  0  # atno 11005 bound_to 11000
  146.0327  139.3350  143.0745 LP  0  0  0  0  0  0  0  0  0  0  0  0  # atno 17320 bound_to 7965
  145.8432  140.9569  143.0788 LP  0  0  0  0  0  0  0  0  0  0  0  0  # atno 17321 bound_to 7965
  140.6798  143.8108  150.7106 LP  0  0  0  0  0  0  0  0  0  0  0  0  # atno 17342 bound_to 10162
  140.1558  143.4318  152.2100 LP  0  0  0  0  0  0  0  0  0  0  0  0  # atno 17343 bound_to 10162
  156.1889  130.6547  151.1038 LP  0  0  0  0  0  0  0  0  0  0  0  0  # atno 17370 bound_to 10713
  157.7054  131.0759  150.6685 LP  0  0  0  0  0  0  0  0  0  0  0  0  # atno 17371 bound_to 10713
  140.8459  133.8169  155.9120 LP  0  0  0  0  0  0  0  0  0  0  0  0  # atno 17394 bound_to 11000
  140.9192  134.2163  157.4937 LP  0  0  0  0  0  0  0  0  0  0  0  0  # atno 17395 bound_to 11000

$$$$
