#       Name:                AV-unprocessed.smi:1272
#       Creating user name   scv26
#       Creation time:       Fri Mar 27 04:46:52 2020


#       File generated by GOLD software.
#

@<TRIPOS>MOLECULE
AV-unprocessed.smi:1272
    52    54     1
SMALL
NO_CHARGES


@<TRIPOS>ATOM
      1 ****        -1.6496   4.1666  -2.0766 C.3            1 S1                 0.0000
      2 ****        -2.8527   3.2617  -1.7837 C.3            1 S1                 0.0000
      3 ****        -2.5225   2.2495  -0.7838 N.am           1 S1                 0.0000
      4 ****        -2.0457   1.0053  -1.0224 C.2            1 S1                 0.0000
      5 ****        -1.8060   0.5198  -2.1280 O.2            1 S1                 0.0000
      6 ****        -1.8555   0.3918   0.1695 N.am           1 S1                 0.0000
      7 ****        -1.3385  -0.9598   0.3760 C.3            1 S1                 0.0000
      8 ****         0.2024  -0.9941   0.3170 C.3            1 S1                 0.0000
      9 ****         0.6991  -0.6707   1.6014 O.3            1 S1                 0.0000
     10 ****         0.7296  -2.3969  -0.0480 C.3            1 S1                 0.0000
     11 ****         2.2082  -2.4355  -0.1884 N.4            1 S1                 1.0000
     12 ****         2.7593  -3.8012  -0.0185 C.3            1 S1                 0.0000
     13 ****         4.2950  -3.7765  -0.1046 C.3            1 S1                 0.0000
     14 ****         4.6945  -3.2087  -1.3457 O.3            1 S1                 0.0000
     15 ****         4.2445  -1.8670  -1.4864 C.3            1 S1                 0.0000
     16 ****         2.7073  -1.8326  -1.4497 C.3            1 S1                 0.0000
     17 ****        -2.1914   1.2797   1.2016 C.ar           1 S1                 0.0000
     18 ****        -2.1429   1.1365   2.5993 C.ar           1 S1                 0.0000
     19 ****        -2.5450   2.2472   3.3775 C.ar           1 S1                 0.0000
     20 ****        -2.9761   3.4499   2.7601 C.ar           1 S1                 0.0000
     21 ****        -3.0138   3.5678   1.3510 C.ar           1 S1                 0.0000
     22 ****        -2.6105   2.4489   0.6015 C.ar           1 S1                 0.0000
     23 ****        -1.9036   4.9188  -2.8235 H              1 S1                 0.0000
     24 ****        -0.8061   3.5907  -2.4585 H              1 S1                 0.0000
     25 ****        -1.3203   4.6884  -1.1776 H              1 S1                 0.0000
     26 ****        -3.6945   3.8597  -1.4341 H              1 S1                 0.0000
     27 ****        -3.1868   2.7796  -2.7037 H              1 S1                 0.0000
     28 ****        -1.7130  -1.3848   1.3081 H              1 S1                 0.0000
     29 ****        -1.7497  -1.5901  -0.4144 H              1 S1                 0.0000
     30 ****         0.5609  -0.2583  -0.4022 H              1 S1                 0.0000
     31 ****         0.3224  -1.2672   2.2304 H              1 S1                 0.0000
     32 ****         0.4154  -3.0992   0.7262 H              1 S1                 0.0000
     33 ****         0.2763  -2.7469  -0.9768 H              1 S1                 0.0000
     34 ****         2.4546  -4.2083   0.9464 H              1 S1                 0.0000
     35 ****         2.3523  -4.4590  -0.7883 H              1 S1                 0.0000
     36 ****         4.7231  -3.2095   0.7235 H              1 S1                 0.0000
     37 ****         4.6916  -4.7896  -0.0355 H              1 S1                 0.0000
     38 ****         4.6674  -1.2429  -0.6973 H              1 S1                 0.0000
     39 ****         4.6070  -1.4698  -2.4346 H              1 S1                 0.0000
     40 ****         2.3028  -2.3789  -2.3034 H              1 S1                 0.0000
     41 ****         2.3718  -0.8006  -1.5441 H              1 S1                 0.0000
     42 ****        -1.8087   0.2217   3.0655 H              1 S1                 0.0000
     43 ****        -2.5216   2.1799   4.4551 H              1 S1                 0.0000
     44 ****        -3.2770   4.2865   3.3734 H              1 S1                 0.0000
     45 ****        -3.3359   4.4825   0.8758 H              1 S1                 0.0000
     46 ****         2.5800  -1.8828   0.5714 H              1 S1                 0.0000
     47 ****        -1.9632   1.0588  -2.9555 LP             1 S1                 0.0000
     48 ****        -1.4540  -0.4136  -2.1986 LP             1 S1                 0.0000
     49 ****         0.4453   0.2682   1.8339 LP             1 S1                 0.0000
     50 ****         1.6953  -0.7584   1.6090 LP             1 S1                 0.0000
     51 ****         4.3127  -3.7572  -2.0896 LP             1 S1                 0.0000
     52 ****         5.6930  -3.2219  -1.4005 LP             1 S1                 0.0000
@<TRIPOS>BOND
    1    1    2 1     
    2    1   23 1     
    3    1   24 1     
    4    1   25 1     
    5    2    3 1     
    6    2   26 1     
    7    2   27 1     
    8    3   22 1     
    9    3    4 am    
   10    4    5 2     
   11    4    6 am    
   12    6    7 1     
   13    6   17 1     
   14    7    8 1     
   15    7   28 1     
   16    7   29 1     
   17    8    9 1     
   18    8   10 1     
   19    8   30 1     
   20    9   31 1     
   21   10   11 1     
   22   10   32 1     
   23   10   33 1     
   24   11   16 1     
   25   11   12 1     
   26   11   46 1     
   27   12   13 1     
   28   12   34 1     
   29   12   35 1     
   30   13   14 1     
   31   13   36 1     
   32   13   37 1     
   33   14   15 1     
   34   15   16 1     
   35   15   38 1     
   36   15   39 1     
   37   16   40 1     
   38   16   41 1     
   39   17   22 ar    
   40   17   18 ar    
   41   18   19 ar    
   42   18   42 1     
   43   19   20 ar    
   44   19   43 1     
   45   20   21 ar    
   46   20   44 1     
   47   21   22 ar    
   48   21   45 1     
   49    5   47 1     
   50    5   48 1     
   51    9   49 1     
   52    9   50 1     
   53   14   51 1     
   54   14   52 1     
@<TRIPOS>SUBSTRUCTURE
      1 S1             1
@<TRIPOS>SET
LONE_PAIRS      STATIC     ATOMS    <user>   **** ""
6 47 48 49 50 51 52
DONOR_HYDROGENS      STATIC     ATOMS    <user>   **** ""
2 31 46
ATOM$BLUE        STATIC     ATOMS    COLORGROUP SYSTEM
6 47 48 49 50 51 52
ATOM$RED        STATIC     ATOMS    COLORGROUP SYSTEM
2 31 46
