AV-unprocessed.smi:2817|AV-procd|sdf|10847|dock8
  -GOLD-   2272015293D 1   1.00000     0.00000
 Structure written by MMmdl.
 42 44  0  0  0  0  0  0  0  0  1 V2000
  149.2239  140.7284  156.7764 O   0  0  0  0  0  0  0  0  0  0  0  0
  150.1960  140.8054  157.5280 C   0  0  0  0  0  0  0  0  0  0  0  0
  150.6798  142.0783  158.0631 C   0  0  0  0  0  0  0  0  0  0  0  0
  151.7562  142.1216  158.8842 C   0  0  0  0  0  0  0  0  0  0  0  0
  152.2970  143.4335  159.4361 C   0  0  0  0  0  0  0  0  0  0  0  0
  151.3027  144.2876  160.2399 C   0  0  0  0  0  0  0  0  0  0  0  0
  151.9300  145.5219  159.5823 C   0  0  0  0  0  0  0  0  0  0  0  0
  152.3803  144.6033  158.4410 C   0  0  0  0  0  0  0  0  0  0  0  0
  152.4356  140.9475  159.2297 N   0  0  0  0  0  0  0  0  0  0  0  0
  152.0270  139.8080  158.7700 C   0  0  0  0  0  0  0  0  0  0  0  0
  150.9081  139.7093  157.9212 N   0  0  0  0  0  0  0  0  0  0  0  0
  150.5499  138.3562  157.4661 C   0  0  0  0  0  0  0  0  0  0  0  0
  149.1888  137.8905  158.0300 C   0  0  1  0  0  0  0  0  0  0  0  0
  148.4970  137.1109  157.0748 O   0  0  0  0  0  0  0  0  0  0  0  0
  149.3220  137.0518  159.3128 C   0  0  0  0  0  0  0  0  0  0  0  0
  148.1890  137.2569  160.1487 O   0  0  0  0  0  0  0  0  0  0  0  0
  147.5932  136.1562  160.7256 C   0  0  0  0  0  0  0  0  0  0  0  0
  147.7183  134.9298  160.0408 C   0  0  0  0  0  0  0  0  0  0  0  0
  147.1409  133.7535  160.5563 C   0  0  0  0  0  0  0  0  0  0  0  0
  146.4284  133.7930  161.7688 C   0  0  0  0  0  0  0  0  0  0  0  0
  146.2960  135.0098  162.4632 C   0  0  0  0  0  0  0  0  0  0  0  0
  146.8742  136.1861  161.9477 C   0  0  0  0  0  0  0  0  0  0  0  0
  150.1657  142.9897  157.7942 H   0  0  0  0  0  0  0  0  0  0  0  0
  153.2364  143.2896  159.9729 H   0  0  0  0  0  0  0  0  0  0  0  0
  150.2623  144.1425  159.9427 H   0  0  0  0  0  0  0  0  0  0  0  0
  151.4248  144.2344  161.3221 H   0  0  0  0  0  0  0  0  0  0  0  0
  151.2198  146.2970  159.2932 H   0  0  0  0  0  0  0  0  0  0  0  0
  152.7656  145.9288  160.1542 H   0  0  0  0  0  0  0  0  0  0  0  0
  153.3803  144.8070  158.0574 H   0  0  0  0  0  0  0  0  0  0  0  0
  151.6429  144.5485  157.6379 H   0  0  0  0  0  0  0  0  0  0  0  0
  152.5220  138.8644  159.0056 H   0  0  0  0  0  0  0  0  0  0  0  0
  150.5593  138.2757  156.3770 H   0  0  0  0  0  0  0  0  0  0  0  0
  151.3294  137.6655  157.7933 H   0  0  0  0  0  0  0  0  0  0  0  0
  148.5605  138.7515  158.2614 H   0  0  0  0  0  0  0  0  0  0  0  0
  148.4438  137.5998  156.2681 H   0  0  0  0  0  0  0  0  0  0  0  0
  149.3700  135.9970  159.0374 H   0  0  0  0  0  0  0  0  0  0  0  0
  150.2483  137.3002  159.8339 H   0  0  0  0  0  0  0  0  0  0  0  0
  148.2634  134.8907  159.1090 H   0  0  0  0  0  0  0  0  0  0  0  0
  147.2448  132.8217  160.0204 H   0  0  0  0  0  0  0  0  0  0  0  0
  145.9841  132.8920  162.1654 H   0  0  0  0  0  0  0  0  0  0  0  0
  145.7497  135.0421  163.3944 H   0  0  0  0  0  0  0  0  0  0  0  0
  146.7510  137.0994  162.5096 H   0  0  0  0  0  0  0  0  0  0  0  0
  1  2  2  0  0  0  0
  2 11  1  0  0  0  0
  2  3  1  0  0  0  0
  3  4  2  0  0  0  0
  3 23  1  0  0  0  0
  4  5  1  0  0  0  0
  4  9  1  0  0  0  0
  5  8  1  0  0  0  0
  5  6  1  0  0  0  0
  5 24  1  0  0  0  0
  6  7  1  0  0  0  0
  6 25  1  0  0  0  0
  6 26  1  0  0  0  0
  7  8  1  0  0  0  0
  7 27  1  0  0  0  0
  7 28  1  0  0  0  0
  8 29  1  0  0  0  0
  8 30  1  0  0  0  0
  9 10  2  0  0  0  0
 10 11  1  0  0  0  0
 10 31  1  0  0  0  0
 11 12  1  0  0  0  0
 12 13  1  0  0  0  0
 12 32  1  0  0  0  0
 12 33  1  0  0  0  0
 13 14  1  0  0  0  0
 13 15  1  0  0  0  0
 13 34  1  0  0  0  0
 14 35  1  0  0  0  0
 15 16  1  0  0  0  0
 15 36  1  0  0  0  0
 15 37  1  0  0  0  0
 16 17  1  0  0  0  0
 17 22  1  0  0  0  0
 17 18  2  0  0  0  0
 18 19  1  0  0  0  0
 18 38  1  0  0  0  0
 19 20  2  0  0  0  0
 19 39  1  0  0  0  0
 20 21  1  0  0  0  0
 20 40  1  0  0  0  0
 21 22  2  0  0  0  0
 21 41  1  0  0  0  0
 22 42  1  0  0  0  0
M  END
> <s_m_source_file>
AV-unprocessed.smi

> <i_m_source_file_index>
2817

> <i_lp_mmshare_version>
43012

> <i_f3d_flags>
0

> <s_epik_input>
W0NIMl0xW0NIMl1bQ0gyXVtDSF0xYyhbY0hdYzI9TyluW2NIXW4yW0NIMl1bQ0BIXShbT0hdKVtDSDJdT2MzW2NIXVtjSF1bY0hdW2NIXVtjSF0z

> <s_epik_cmdline>
J2VwaWtfcHl0aG9uJywgJy1waCcsICc3LjAnLCAnLXRuJywgJzgnLCAnLW1hJywgJzIwMCcsICctbWV0YWxfYmluZGluZycsICctaW1hZScsICc8aW5maWxlLm1hZT4nLCAnLW9tYWUnLCAnPG91dGZpbGUubWFlPic=

> <r_lp_tautomer_probability>
1

> <r_epik_Ionization_Penalty>
2.12778e-05

> <r_epik_Ionization_Penalty_Charging>
7.42033e-08

> <r_epik_Ionization_Penalty_Neutral>
2.12036e-05

> <r_epik_State_Penalty>
-0

> <r_epik_Charging_Adjusted_Penalty>
7.42033e-08

> <i_epik_Tot_Q>
0

> <i_epik_Tot_abs_Q>
0

> <r_epik_Metal_State_Penalty>
-0

> <b_epik_Metal_Only>
0

> <s_lp_Force_Field>
OPLS_2005

> <r_lp_Energy>
33.1228

> <b_lp_Chiralities_Consistent>
1

> <s_lp_Variant>
AV-unprocessed.smi:2817-2

> <Gold.Version>
5.8.1

> <Gold.Id.Protein>
6NUR|6NUR_protein|mol2

> <Gold.PLP.Fitness>
48.3455

> <Gold.PLP.PLP>
-48.6744

> <Gold.PLP.part.hbond>
-2.0000

> <Gold.PLP.part.metal>
0.0000

> <Gold.PLP.part.buried>
-5.7841

> <Gold.PLP.part.nonpolar>
-41.5239

> <Gold.PLP.part.repulsive>
0.0364

> <Gold.PLP.ligand.clash>
0.0000

> <Gold.PLP.ligand.torsion>
1.8138

> <Gold.PLP.Chemscore.Hbond>
0.9337

> <Gold.PLP.Chemscore.CHOScore>
0.0000

> <Gold.PLP.Chemscore.Metal>
0.0000

> <Gold.Chemscore.Hbonds>
donor molecule, donor type, donor heavy atom, donor atom, acceptor molecule, acceptor atom, score
      P1  H  6931  6943       L1    16  0.39
      P1  H  6934  6947       L1    16  0.43

> <Gold.PLP.Chemscore.Internal.Correction>
0.4976

> <Gold.Rescore>
     Score         DG    S(hbond)    S(metal)    S(lipo)     H(rot)  DE(clash)    DE(int)     intcor
     14.45     -16.64       0.67        0.00     129.37       2.42       0.11       2.08       ----

> <Gold.Chemscore.Fitness>
14.4501

> <Gold.Chemscore.DG>
-16.6412

> <Gold.Chemscore.ZeroCoef>
-5.4800

> <Gold.Chemscore.Hbond>
0.6681

> <Gold.Chemscore.Metal>
0.0000

> <Gold.Chemscore.Lipo>
129.3716

> <Gold.Chemscore.Internal_Hbond>
0.0000

> <Gold.Chemscore.DEClash>
0.1140

> <Gold.Chemscore.DEInternal>
2.0770

> <Gold.Chemscore.Rot>
2.4245

> <Gold.Chemscore.Internal.Correction>
   9.000000E+99

> <Gold.Chemscore.Hbonds>
donor molecule, donor type, donor heavy atom, donor atom, acceptor molecule, acceptor atom, score
      P1  H  6931  6943       L1    16  0.06
      P1  H  6934  6947       L1    16  0.28

> <Gold.Chemscore.Hbond.Weighted>
-2.2313

> <Gold.Chemscore.Metal.Weighted>
-0.0000

> <Gold.Chemscore.Lipo.Weighted>
-15.1365

> <Gold.Chemscore.Internal_Hbond.Weighted>
0.0000

> <Gold.Chemscore.DEClash.Weighted>
0.1140

> <Gold.Chemscore.DEInternal.Weighted>
2.0770

> <Gold.Chemscore.Rot.Weighted>
6.2066

> <Gold.Chemscore.Internal.Correction.Weighted>
   9.000000E+99

> <Gold.Protein.RotatedTorsions>
[ 6907 6896 6895 6894 ] final  -39.15 input  -60.11 | X-H torsion
[ 7974 7965 7964 7962 ] final   46.43 input  175.53 | X-H torsion
[ 8008 7997 7996 7995 ] final   58.86 input   59.86 | X-H torsion
[ 10167 10162 10161 10158 ] final   25.01 input  -65.29 | X-H torsion
[ 10718 10713 10712 10709 ] final  -32.28 input   66.30 | X-H torsion
[ 10763 10752 10751 10750 ] final  153.28 input  -60.55 | X-H torsion
[ 11005 11000 10999 10996 ] final   58.55 input  -57.11 | X-H torsion

> <Gold.Protein.ActiveResidues>
 VAL166  LYS551  ARG553  GLY616  TRP617  ASP618  TYR619  PRO620  LYS621  CYS622 
 ASP623  PHE694  ASN695  SER759  ASP760  ASP761  ALA762  ILE779  LEU786  VAL792 
 PHE793  MET794  SER795  GLU796  ALA797  LYS798  CYS799  TRP800  GLU811  SER814 

> <Gold.Protein.RotatedAtoms>
  150.9938  134.9267  159.7914 H   0  0  0  0  0  0  0  0  0  0  0  0  # atno 6907 bound_to 6896
  152.5259  134.3245  159.9170 H   0  0  0  0  0  0  0  0  0  0  0  0  # atno 6908 bound_to 6896
  151.3251  133.3982  159.2692 H   0  0  0  0  0  0  0  0  0  0  0  0  # atno 6909 bound_to 6896
  146.0391  139.4857  142.9790 H   0  0  0  0  0  0  0  0  0  0  0  0  # atno 7974 bound_to 7965
  155.5569  140.3487  155.4482 H   0  0  0  0  0  0  0  0  0  0  0  0  # atno 8008 bound_to 7997
  156.0543  140.1325  157.0041 H   0  0  0  0  0  0  0  0  0  0  0  0  # atno 8009 bound_to 7997
  154.4449  140.0998  156.6407 H   0  0  0  0  0  0  0  0  0  0  0  0  # atno 8010 bound_to 7997
  140.5141  144.0112  150.6386 H   0  0  0  0  0  0  0  0  0  0  0  0  # atno 10167 bound_to 10162
  156.3768  130.4349  149.7501 H   0  0  0  0  0  0  0  0  0  0  0  0  # atno 10718 bound_to 10713
  154.1337  135.2825  155.3178 H   0  0  0  0  0  0  0  0  0  0  0  0  # atno 10763 bound_to 10752
  154.6337  135.5426  153.7713 H   0  0  0  0  0  0  0  0  0  0  0  0  # atno 10764 bound_to 10752
  153.0273  135.6469  154.1486 H   0  0  0  0  0  0  0  0  0  0  0  0  # atno 10765 bound_to 10752
  140.0369  134.5929  155.9432 H   0  0  0  0  0  0  0  0  0  0  0  0  # atno 11005 bound_to 11000
  145.6915  141.0163  143.1553 LP  0  0  0  0  0  0  0  0  0  0  0  0  # atno 17320 bound_to 7965
  144.7066  139.8538  143.7428 LP  0  0  0  0  0  0  0  0  0  0  0  0  # atno 17321 bound_to 7965
  140.3443  143.3001  152.0555 LP  0  0  0  0  0  0  0  0  0  0  0  0  # atno 17342 bound_to 10162
  139.4904  144.6420  151.6857 LP  0  0  0  0  0  0  0  0  0  0  0  0  # atno 17343 bound_to 10162
  156.4607  130.7950  151.2970 LP  0  0  0  0  0  0  0  0  0  0  0  0  # atno 17370 bound_to 10713
  157.7489  131.0067  150.3161 LP  0  0  0  0  0  0  0  0  0  0  0  0  # atno 17371 bound_to 10713
  141.1862  133.6557  156.5231 LP  0  0  0  0  0  0  0  0  0  0  0  0  # atno 17394 bound_to 11000
  140.4132  134.7253  157.4848 LP  0  0  0  0  0  0  0  0  0  0  0  0  # atno 17395 bound_to 11000

$$$$
