AV-unprocessed.smi:2504|AV-procd|sdf|9849|dock6
  -GOLD-   2272013473D 1   1.00000     0.00000
 Structure written by MMmdl.
 46 48  0  0  0  0  0  0  0  0  1 V2000
  147.2042  130.9789  153.3463 O   0  0  0  0  0  0  0  0  0  0  0  0
  147.6442  132.1092  153.1325 C   0  0  0  0  0  0  0  0  0  0  0  0
  146.7646  133.1966  152.4786 C   0  0  0  0  0  0  0  0  0  0  0  0
  145.5184  133.5783  153.3058 C   0  0  0  0  0  0  0  0  0  0  0  0
  144.4546  133.9490  152.2754 C   0  0  0  0  0  0  0  0  0  0  0  0
  144.7004  132.9673  151.1346 C   0  0  0  0  0  0  0  0  0  0  0  0
  146.2222  132.7947  151.0854 C   0  0  0  0  0  0  0  0  0  0  0  0
  148.9175  132.4841  153.5730 N   0  0  0  0  0  0  0  0  0  0  0  0
  149.1754  133.7933  154.1545 C   0  0  0  0  0  0  0  0  0  0  0  0
  150.3035  133.0958  154.9268 C   0  0  0  0  0  0  0  0  0  0  0  0
  150.3812  133.5111  156.7251 S   0  0  0  0  0  0  0  0  0  0  0  0
  150.9731  132.3860  157.4656 O   0  0  0  0  0  0  0  0  0  0  0  0
  150.9379  134.8637  156.8789 O   0  0  0  0  0  0  0  0  0  0  0  0
  148.7139  133.5917  157.1491 N   0  0  0  0  0  0  0  0  0  0  0  0
  148.3160  134.5213  158.2055 C   0  0  0  0  0  0  0  0  0  0  0  0
  148.3047  133.8180  159.5714 C   0  0  0  0  0  0  0  0  0  0  0  0
  148.1590  134.7845  160.7336 C   0  0  0  0  0  0  0  0  0  0  0  0
  147.9048  134.3130  162.0379 C   0  0  0  0  0  0  0  0  0  0  0  0
  147.7862  135.2462  163.0858 C   0  0  0  0  0  0  0  0  0  0  0  0
  147.9276  136.6153  162.7837 C   0  0  0  0  0  0  0  0  0  0  0  0
  148.1697  137.0787  161.5384 N   0  0  0  0  0  0  0  0  0  0  0  0
  148.2796  136.1773  160.5390 C   0  0  0  0  0  0  0  0  0  0  0  0
  149.5866  131.7694  154.6500 C   0  0  0  0  0  0  0  0  0  0  0  0
  147.3707  134.0962  152.3640 H   0  0  0  0  0  0  0  0  0  0  0  0
  145.1519  132.7355  153.8941 H   0  0  0  0  0  0  0  0  0  0  0  0
  145.7172  134.3986  153.9963 H   0  0  0  0  0  0  0  0  0  0  0  0
  143.4418  133.8854  152.6742 H   0  0  0  0  0  0  0  0  0  0  0  0
  144.6151  134.9702  151.9266 H   0  0  0  0  0  0  0  0  0  0  0  0
  144.2310  132.0111  151.3700 H   0  0  0  0  0  0  0  0  0  0  0  0
  144.2875  133.3147  150.1869 H   0  0  0  0  0  0  0  0  0  0  0  0
  146.6453  133.4553  150.3277 H   0  0  0  0  0  0  0  0  0  0  0  0
  146.4784  131.7748  150.7944 H   0  0  0  0  0  0  0  0  0  0  0  0
  149.5176  134.5393  153.4369 H   0  0  0  0  0  0  0  0  0  0  0  0
  148.3572  134.1570  154.7779 H   0  0  0  0  0  0  0  0  0  0  0  0
  151.2835  133.1616  154.4512 H   0  0  0  0  0  0  0  0  0  0  0  0
  148.1354  133.7217  156.3192 H   0  0  0  0  0  0  0  0  0  0  0  0
  149.0117  135.3607  158.2230 H   0  0  0  0  0  0  0  0  0  0  0  0
  147.3295  134.9250  157.9749 H   0  0  0  0  0  0  0  0  0  0  0  0
  147.4982  133.0841  159.6062 H   0  0  0  0  0  0  0  0  0  0  0  0
  149.2308  133.2566  159.7000 H   0  0  0  0  0  0  0  0  0  0  0  0
  147.8047  133.2553  162.2331 H   0  0  0  0  0  0  0  0  0  0  0  0
  147.5922  134.9209  164.0972 H   0  0  0  0  0  0  0  0  0  0  0  0
  147.8439  137.3581  163.5632 H   0  0  0  0  0  0  0  0  0  0  0  0
  148.4779  136.5800  159.5564 H   0  0  0  0  0  0  0  0  0  0  0  0
  148.9129  131.4600  155.4520 H   0  0  0  0  0  0  0  0  0  0  0  0
  150.2376  130.9629  154.3120 H   0  0  0  0  0  0  0  0  0  0  0  0
  1  2  2  0  0  0  0
  2  3  1  0  0  0  0
  2  8  1  0  0  0  0
  3  7  1  0  0  0  0
  3  4  1  0  0  0  0
  3 24  1  0  0  0  0
  4  5  1  0  0  0  0
  4 25  1  0  0  0  0
  4 26  1  0  0  0  0
  5  6  1  0  0  0  0
  5 27  1  0  0  0  0
  5 28  1  0  0  0  0
  6  7  1  0  0  0  0
  6 29  1  0  0  0  0
  6 30  1  0  0  0  0
  7 31  1  0  0  0  0
  7 32  1  0  0  0  0
  8 23  1  0  0  0  0
  8  9  1  0  0  0  0
  9 10  1  0  0  0  0
  9 33  1  0  0  0  0
  9 34  1  0  0  0  0
 10 11  1  0  0  0  0
 10 23  1  0  0  0  0
 10 35  1  0  0  0  0
 11 12  2  0  0  0  0
 11 13  2  0  0  0  0
 11 14  1  0  0  0  0
 14 15  1  0  0  0  0
 14 36  1  0  0  0  0
 15 16  1  0  0  0  0
 15 37  1  0  0  0  0
 15 38  1  0  0  0  0
 16 17  1  0  0  0  0
 16 39  1  0  0  0  0
 16 40  1  0  0  0  0
 17 22  1  0  0  0  0
 17 18  2  0  0  0  0
 18 19  1  0  0  0  0
 18 41  1  0  0  0  0
 19 20  2  0  0  0  0
 19 42  1  0  0  0  0
 20 21  1  0  0  0  0
 20 43  1  0  0  0  0
 21 22  2  0  0  0  0
 22 44  1  0  0  0  0
 23 45  1  0  0  0  0
 23 46  1  0  0  0  0
M  END
> <s_m_source_file>
AV-unprocessed.smi

> <i_m_source_file_index>
2504

> <i_lp_mmshare_version>
43012

> <i_f3d_flags>
0

> <s_epik_input>
W0NIMl0xW0NIMl1bQ0gyXVtDSDJdW0NIXTFDKD1PKU4yW0NIMl1bQ0hdKFtDSDJdMilTKD1PKSg9TylbTkhdW0NIMl1bQ0gyXWMzW2NIXVtjSF1bY0hdbltjSF0z

> <s_epik_cmdline>
J2VwaWtfcHl0aG9uJywgJy1waCcsICc3LjAnLCAnLXRuJywgJzgnLCAnLW1hJywgJzIwMCcsICctbWV0YWxfYmluZGluZycsICctaW1hZScsICc8aW5maWxlLm1hZT4nLCAnLW9tYWUnLCAnPG91dGZpbGUubWFlPic=

> <r_epik_Ionization_Penalty>
0.0107611

> <r_epik_Ionization_Penalty_Charging>
0

> <r_epik_Ionization_Penalty_Neutral>
0.0107611

> <r_epik_State_Penalty>
0.00821942

> <r_epik_Charging_Adjusted_Penalty>
0.00821942

> <i_epik_Tot_Q>
0

> <i_epik_Tot_abs_Q>
0

> <r_epik_Metal_State_Penalty>
0.0376733

> <b_epik_Metal_Only>
0

> <s_lp_Force_Field>
OPLS_2005

> <r_lp_Energy>
34.3459

> <b_lp_Chiralities_Consistent>
1

> <s_lp_Variant>
AV-unprocessed.smi:2504-1

> <Gold.Version>
5.8.1

> <Gold.Id.Protein>
6NUR|6NUR_protein|mol2

> <Gold.PLP.Fitness>
51.3137

> <Gold.PLP.PLP>
-44.8766

> <Gold.PLP.part.hbond>
-3.5147

> <Gold.PLP.part.metal>
0.0000

> <Gold.PLP.part.buried>
-5.1776

> <Gold.PLP.part.nonpolar>
-36.5243

> <Gold.PLP.part.repulsive>
0.1220

> <Gold.PLP.ligand.clash>
0.0000

> <Gold.PLP.ligand.torsion>
1.8273

> <Gold.PLP.Chemscore.Hbond>
2.7840

> <Gold.PLP.Chemscore.CHOScore>
0.0000

> <Gold.PLP.Chemscore.Metal>
0.0000

> <Gold.Chemscore.Hbonds>
donor molecule, donor type, donor heavy atom, donor atom, acceptor molecule, acceptor atom, score
      P1  H  6896  6907       L1    12  0.94
      P1  H  6931  6943       L1    21  0.83
      P1  H  6934  6947       L1    21  0.26

> <Gold.PLP.Chemscore.Internal.Correction>
1.7396

> <Gold.Rescore>
     Score         DG    S(hbond)    S(metal)    S(lipo)     H(rot)  DE(clash)    DE(int)     intcor
     15.89     -17.66       1.84        0.00      91.98       1.85       0.01       1.76       ----

> <Gold.Chemscore.Fitness>
15.8935

> <Gold.Chemscore.DG>
-17.6557

> <Gold.Chemscore.ZeroCoef>
-5.4800

> <Gold.Chemscore.Hbond>
1.8410

> <Gold.Chemscore.Metal>
0.0000

> <Gold.Chemscore.Lipo>
91.9770

> <Gold.Chemscore.Internal_Hbond>
0.0000

> <Gold.Chemscore.DEClash>
0.0069

> <Gold.Chemscore.DEInternal>
1.7553

> <Gold.Chemscore.Rot>
1.8494

> <Gold.Chemscore.Internal.Correction>
   9.000000E+99

> <Gold.Chemscore.Hbonds>
donor molecule, donor type, donor heavy atom, donor atom, acceptor molecule, acceptor atom, score
      P1  H  6896  6907       L1    12  0.23
      P1  H  6931  6943       L1    21  0.16
      P1  H  6934  6947       L1    21  0.22

> <Gold.Chemscore.Hbond.Weighted>
-6.1490

> <Gold.Chemscore.Metal.Weighted>
-0.0000

> <Gold.Chemscore.Lipo.Weighted>
-10.7613

> <Gold.Chemscore.Internal_Hbond.Weighted>
0.0000

> <Gold.Chemscore.DEClash.Weighted>
0.0069

> <Gold.Chemscore.DEInternal.Weighted>
1.7553

> <Gold.Chemscore.Rot.Weighted>
4.7346

> <Gold.Chemscore.Internal.Correction.Weighted>
   9.000000E+99

> <Gold.Protein.RotatedTorsions>
[ 6907 6896 6895 6894 ] final -168.36 input  -60.11 | X-H torsion
[ 7974 7965 7964 7962 ] final -106.02 input  175.53 | X-H torsion
[ 8008 7997 7996 7995 ] final   -1.20 input   59.86 | X-H torsion
[ 10167 10162 10161 10158 ] final -139.33 input  -65.29 | X-H torsion
[ 10718 10713 10712 10709 ] final  -85.11 input   66.30 | X-H torsion
[ 10763 10752 10751 10750 ] final  152.70 input  -60.55 | X-H torsion
[ 11005 11000 10999 10996 ] final  116.58 input  -57.11 | X-H torsion

> <Gold.Protein.ActiveResidues>
 VAL166  LYS551  ARG553  GLY616  TRP617  ASP618  TYR619  PRO620  LYS621  CYS622 
 ASP623  PHE694  ASN695  SER759  ASP760  ASP761  ALA762  ILE779  LEU786  VAL792 
 PHE793  MET794  SER795  GLU796  ALA797  LYS798  CYS799  TRP800  GLU811  SER814 

> <Gold.Protein.RotatedAtoms>
  151.4742  133.3561  159.2827 H   0  0  0  0  0  0  0  0  0  0  0  0  # atno 6907 bound_to 6896
  150.8940  134.8349  159.7324 H   0  0  0  0  0  0  0  0  0  0  0  0  # atno 6908 bound_to 6896
  152.4840  134.4655  159.9671 H   0  0  0  0  0  0  0  0  0  0  0  0  # atno 6909 bound_to 6896
  145.2231  140.9142  143.3248 H   0  0  0  0  0  0  0  0  0  0  0  0  # atno 7974 bound_to 7965
  154.6495  140.2565  155.7230 H   0  0  0  0  0  0  0  0  0  0  0  0  # atno 8008 bound_to 7997
  156.2568  140.2871  156.0843 H   0  0  0  0  0  0  0  0  0  0  0  0  # atno 8009 bound_to 7997
  155.1473  140.0381  157.2803 H   0  0  0  0  0  0  0  0  0  0  0  0  # atno 8010 bound_to 7997
  139.8390  143.7347  152.2664 H   0  0  0  0  0  0  0  0  0  0  0  0  # atno 10167 bound_to 10162
  155.9999  130.4720  150.4513 H   0  0  0  0  0  0  0  0  0  0  0  0  # atno 10718 bound_to 10713
  154.1242  135.2831  155.3201 H   0  0  0  0  0  0  0  0  0  0  0  0  # atno 10763 bound_to 10752
  154.6401  135.5405  153.7783 H   0  0  0  0  0  0  0  0  0  0  0  0  # atno 10764 bound_to 10752
  153.0302  135.6484  154.1395 H   0  0  0  0  0  0  0  0  0  0  0  0  # atno 10765 bound_to 10752
  139.9046  134.9600  156.7220 H   0  0  0  0  0  0  0  0  0  0  0  0  # atno 11005 bound_to 11000
  144.9747  139.3844  143.6291 LP  0  0  0  0  0  0  0  0  0  0  0  0  # atno 17320 bound_to 7965
  146.3371  139.8861  142.8816 LP  0  0  0  0  0  0  0  0  0  0  0  0  # atno 17321 bound_to 7965
  139.7578  144.7515  151.0409 LP  0  0  0  0  0  0  0  0  0  0  0  0  # atno 17342 bound_to 10162
  140.7800  143.4786  151.0049 LP  0  0  0  0  0  0  0  0  0  0  0  0  # atno 17343 bound_to 10162
  157.2546  131.0554  151.2358 LP  0  0  0  0  0  0  0  0  0  0  0  0  # atno 17370 bound_to 10713
  157.3495  130.7075  149.6432 LP  0  0  0  0  0  0  0  0  0  0  0  0  # atno 17371 bound_to 10713
  140.6993  133.9321  155.8014 LP  0  0  0  0  0  0  0  0  0  0  0  0  # atno 17394 bound_to 11000
  141.0384  134.0657  157.3932 LP  0  0  0  0  0  0  0  0  0  0  0  0  # atno 17395 bound_to 11000

$$$$
