AV-unprocessed.smi:3284|AV-procd|sdf|12574|dock8
  -GOLD-   2272018493D 1   1.00000     0.00000
 Structure written by MMmdl.
 44 45  0  0  0  0  0  0  0  0  2 V2000
  150.3709  145.1194  160.2434 C   0  0  0  0  0  0  0  0  0  0  0  0
  151.4454  144.0555  160.3963 C   0  0  0  0  0  0  0  0  0  0  0  0
  152.1888  144.0140  161.5184 C   0  0  0  0  0  0  0  0  0  0  0  0
  153.2303  142.9595  161.8117 C   0  0  0  0  0  0  0  0  0  0  0  0
  152.9905  141.7039  160.9707 C   0  0  0  0  0  0  0  0  0  0  0  0
  152.8039  142.0508  159.4847 C   0  0  1  0  0  0  0  0  0  0  0  0
  152.6567  140.7506  158.6709 C   0  0  0  0  0  0  0  0  0  0  0  0
  151.6210  143.0403  159.2479 C   0  0  2  0  0  0  0  0  0  0  0  0
  151.7703  143.7221  157.8618 C   0  0  0  0  0  0  0  0  0  0  0  0
  150.8912  143.1328  156.8311 N   0  3  0  0  0  0  0  0  0  0  0  0
  149.9486  142.1229  157.3490 C   0  0  0  0  0  0  0  0  0  0  0  0
  149.0182  141.6178  156.2393 C   0  0  0  0  0  0  0  0  0  0  0  0
  149.6546  140.5497  155.4058 C   0  0  0  0  0  0  0  0  0  0  0  0
  150.8778  140.0789  155.6266 N   0  0  0  0  0  0  0  0  0  0  0  0
  151.0632  139.1016  154.6548 C   0  0  0  0  0  0  0  0  0  0  0  0
  149.9324  139.0096  153.8799 C   0  0  0  0  0  0  0  0  0  0  0  0
  149.0317  139.9419  154.3775 N   0  0  0  0  0  0  0  0  0  0  0  0
  147.6954  140.1886  153.8717 C   0  0  0  0  0  0  0  0  0  0  0  0
  149.4203  144.6661  159.9613 H   0  0  0  0  0  0  0  0  0  0  0  0
  150.6538  145.8531  159.4892 H   0  0  0  0  0  0  0  0  0  0  0  0
  150.2132  145.6599  161.1775 H   0  0  0  0  0  0  0  0  0  0  0  0
  152.0471  144.7598  162.2871 H   0  0  0  0  0  0  0  0  0  0  0  0
  154.2179  143.3776  161.6148 H   0  0  0  0  0  0  0  0  0  0  0  0
  153.1940  142.7054  162.8713 H   0  0  0  0  0  0  0  0  0  0  0  0
  153.8276  141.0171  161.1017 H   0  0  0  0  0  0  0  0  0  0  0  0
  152.1046  141.1836  161.3382 H   0  0  0  0  0  0  0  0  0  0  0  0
  153.7233  142.5415  159.1600 H   0  0  0  0  0  0  0  0  0  0  0  0
  151.7445  140.2174  158.9403 H   0  0  0  0  0  0  0  0  0  0  0  0
  153.4947  140.0781  158.8566 H   0  0  0  0  0  0  0  0  0  0  0  0
  152.6297  140.9308  157.5974 H   0  0  0  0  0  0  0  0  0  0  0  0
  150.7036  142.4494  159.2418 H   0  0  0  0  0  0  0  0  0  0  0  0
  151.5639  144.7895  157.9543 H   0  0  0  0  0  0  0  0  0  0  0  0
  152.7906  143.6402  157.4906 H   0  0  0  0  0  0  0  0  0  0  0  0
  150.3653  143.8754  156.3930 H   0  0  0  0  0  0  0  0  0  0  0  0
  150.5125  141.2886  157.7686 H   0  0  0  0  0  0  0  0  0  0  0  0
  149.3627  142.5578  158.1596 H   0  0  0  0  0  0  0  0  0  0  0  0
  148.0855  141.2456  156.6639 H   0  0  0  0  0  0  0  0  0  0  0  0
  148.7435  142.4449  155.5832 H   0  0  0  0  0  0  0  0  0  0  0  0
  151.9862  138.5446  154.5896 H   0  0  0  0  0  0  0  0  0  0  0  0
  149.7007  138.3718  153.0395 H   0  0  0  0  0  0  0  0  0  0  0  0
  147.4483  139.4653  153.0940 H   0  0  0  0  0  0  0  0  0  0  0  0
  147.6407  141.1921  153.4496 H   0  0  0  0  0  0  0  0  0  0  0  0
  146.9701  140.0969  154.6802 H   0  0  0  0  0  0  0  0  0  0  0  0
  151.4740  142.6939  156.1325 H   0  0  0  0  0  0  0  0  0  0  0  0
  1  2  1  0  0  0  0
  1 19  1  0  0  0  0
  1 20  1  0  0  0  0
  1 21  1  0  0  0  0
  2  8  1  0  0  0  0
  2  3  2  0  0  0  0
  3  4  1  0  0  0  0
  3 22  1  0  0  0  0
  4  5  1  0  0  0  0
  4 23  1  0  0  0  0
  4 24  1  0  0  0  0
  5  6  1  0  0  0  0
  5 25  1  0  0  0  0
  5 26  1  0  0  0  0
  6  7  1  0  0  0  0
  6  8  1  0  0  0  0
  6 27  1  0  0  0  0
  7 28  1  0  0  0  0
  7 29  1  0  0  0  0
  7 30  1  0  0  0  0
  8  9  1  0  0  0  0
  8 31  1  0  0  0  0
  9 10  1  0  0  0  0
  9 32  1  0  0  0  0
  9 33  1  0  0  0  0
 10 11  1  0  0  0  0
 10 34  1  0  0  0  0
 10 44  1  0  0  0  0
 11 12  1  0  0  0  0
 11 35  1  0  0  0  0
 11 36  1  0  0  0  0
 12 13  1  0  0  0  0
 12 37  1  0  0  0  0
 12 38  1  0  0  0  0
 13 17  1  0  0  0  0
 13 14  2  0  0  0  0
 14 15  1  0  0  0  0
 15 16  2  0  0  0  0
 15 39  1  0  0  0  0
 16 17  1  0  0  0  0
 16 40  1  0  0  0  0
 17 18  1  0  0  0  0
 18 41  1  0  0  0  0
 18 42  1  0  0  0  0
 18 43  1  0  0  0  0
M  CHG  1  10   1
M  END
> <s_m_source_file>
AV-unprocessed.smi

> <i_m_source_file_index>
3284

> <i_lp_mmshare_version>
43012

> <i_f3d_flags>
0

> <s_epik_input>
W0NIM11DMT1bQ0hdW0NIMl1bQ0gyXVtDQEBIXShbQ0gzXSlbQ0BIXTFbQ0gyXVtOSF1bQ0gyXVtDSDJdYzJuW2NIXVtjSF1uMltDSDNd

> <s_epik_cmdline>
J2VwaWtfcHl0aG9uJywgJy1waCcsICc3LjAnLCAnLXRuJywgJzgnLCAnLW1hJywgJzIwMCcsICctbWV0YWxfYmluZGluZycsICctaW1hZScsICc8aW5maWxlLm1hZT4nLCAnLW9tYWUnLCAnPG91dGZpbGUubWFlPic=

> <r_lp_tautomer_probability>
1

> <r_epik_Ionization_Penalty>
0.150779

> <r_epik_Ionization_Penalty_Charging>
0.150779

> <r_epik_Ionization_Penalty_Neutral>
1.39452e-13

> <r_epik_State_Penalty>
0.349447

> <r_epik_Charging_Adjusted_Penalty>
0.500226

> <i_epik_Tot_Q>
1

> <i_epik_Tot_abs_Q>
1

> <r_epik_Metal_State_Penalty>
0.000470967

> <b_epik_Metal_Only>
0

> <s_lp_Force_Field>
OPLS_2005

> <r_lp_Energy>
12.7203

> <b_lp_Chiralities_Consistent>
1

> <s_lp_Variant>
AV-unprocessed.smi:3284-3

> <Gold.Version>
5.8.1

> <Gold.Id.Protein>
6NUR|6NUR_protein|mol2

> <Gold.PLP.Fitness>
48.3606

> <Gold.PLP.PLP>
-42.7553

> <Gold.PLP.part.hbond>
-1.0000

> <Gold.PLP.part.metal>
0.0000

> <Gold.PLP.part.buried>
-3.0330

> <Gold.PLP.part.nonpolar>
-38.6657

> <Gold.PLP.part.repulsive>
0.0456

> <Gold.PLP.ligand.clash>
2.1022

> <Gold.PLP.ligand.torsion>
1.1184

> <Gold.PLP.Chemscore.Hbond>
2.0000

> <Gold.PLP.Chemscore.CHOScore>
1.3034

> <Gold.PLP.Chemscore.Metal>
0.0000

> <Gold.Chemscore.Hbonds>
donor molecule, donor type, donor heavy atom, donor atom, acceptor molecule, acceptor atom, score
      L1  H    10    34       P1  8028  2.00
      L1  C    16    40       P1  7948  1.00
      L1  C    16    40       P1  7957  0.45

> <Gold.PLP.Chemscore.Internal.Correction>
0.0339

> <Gold.Rescore>
     Score         DG    S(hbond)    S(metal)    S(lipo)     H(rot)  DE(clash)    DE(int)     intcor
     18.04     -19.54       1.00        0.00     127.00       1.61       0.36       1.14       ----

> <Gold.Chemscore.Fitness>
18.0394

> <Gold.Chemscore.DG>
-19.5414

> <Gold.Chemscore.ZeroCoef>
-5.4800

> <Gold.Chemscore.Hbond>
0.9955

> <Gold.Chemscore.Metal>
0.0000

> <Gold.Chemscore.Lipo>
127.0038

> <Gold.Chemscore.Internal_Hbond>
0.0000

> <Gold.Chemscore.DEClash>
0.3611

> <Gold.Chemscore.DEInternal>
1.1408

> <Gold.Chemscore.Rot>
1.6105

> <Gold.Chemscore.Internal.Correction>
   9.000000E+99

> <Gold.Chemscore.Hbonds>
donor molecule, donor type, donor heavy atom, donor atom, acceptor molecule, acceptor atom, score
      L1  H    10    34       P1  8028  0.99

> <Gold.Chemscore.Hbond.Weighted>
-3.3249

> <Gold.Chemscore.Metal.Weighted>
-0.0000

> <Gold.Chemscore.Lipo.Weighted>
-14.8594

> <Gold.Chemscore.Internal_Hbond.Weighted>
0.0000

> <Gold.Chemscore.DEClash.Weighted>
0.3611

> <Gold.Chemscore.DEInternal.Weighted>
1.1408

> <Gold.Chemscore.Rot.Weighted>
4.1230

> <Gold.Chemscore.Internal.Correction.Weighted>
   9.000000E+99

> <Gold.Protein.RotatedTorsions>
[ 6907 6896 6895 6894 ] final   12.66 input  -60.11 | X-H torsion
[ 7974 7965 7964 7962 ] final -156.61 input  175.53 | X-H torsion
[ 8008 7997 7996 7995 ] final   33.71 input   59.86 | X-H torsion
[ 10167 10162 10161 10158 ] final   -5.18 input  -65.29 | X-H torsion
[ 10718 10713 10712 10709 ] final   92.96 input   66.30 | X-H torsion
[ 10763 10752 10751 10750 ] final  150.44 input  -60.55 | X-H torsion
[ 11005 11000 10999 10996 ] final  101.88 input  -57.11 | X-H torsion

> <Gold.Protein.ActiveResidues>
 VAL166  LYS551  ARG553  GLY616  TRP617  ASP618  TYR619  PRO620  LYS621  CYS622 
 ASP623  PHE694  ASN695  SER759  ASP760  ASP761  ALA762  ILE779  LEU786  VAL792 
 PHE793  MET794  SER795  GLU796  ALA797  LYS798  CYS799  TRP800  GLU811  SER814 

> <Gold.Protein.RotatedAtoms>
  151.7739  135.0779  160.0363 H   0  0  0  0  0  0  0  0  0  0  0  0  # atno 6907 bound_to 6896
  152.3270  133.5911  159.5791 H   0  0  0  0  0  0  0  0  0  0  0  0  # atno 6908 bound_to 6896
  150.7401  133.9842  159.3628 H   0  0  0  0  0  0  0  0  0  0  0  0  # atno 6909 bound_to 6896
  144.7585  140.4086  143.5994 H   0  0  0  0  0  0  0  0  0  0  0  0  # atno 7974 bound_to 7965
  155.1431  140.3268  155.4447 H   0  0  0  0  0  0  0  0  0  0  0  0  # atno 8008 bound_to 7997
  156.2598  140.1990  156.6495 H   0  0  0  0  0  0  0  0  0  0  0  0  # atno 8009 bound_to 7997
  154.6528  140.0556  156.9961 H   0  0  0  0  0  0  0  0  0  0  0  0  # atno 8010 bound_to 7997
  140.6954  143.6338  150.8498 H   0  0  0  0  0  0  0  0  0  0  0  0  # atno 10167 bound_to 10162
  157.6957  131.0461  150.3961 H   0  0  0  0  0  0  0  0  0  0  0  0  # atno 10718 bound_to 10713
  154.0875  135.2855  155.3278 H   0  0  0  0  0  0  0  0  0  0  0  0  # atno 10763 bound_to 10752
  154.6642  135.5323  153.8059 H   0  0  0  0  0  0  0  0  0  0  0  0  # atno 10764 bound_to 10752
  153.0425  135.6541  154.1046 H   0  0  0  0  0  0  0  0  0  0  0  0  # atno 10765 bound_to 10752
  139.8775  134.9201  156.4974 H   0  0  0  0  0  0  0  0  0  0  0  0  # atno 11005 bound_to 11000
  145.6697  139.1597  143.2761 LP  0  0  0  0  0  0  0  0  0  0  0  0  # atno 17320 bound_to 7965
  146.1623  140.6770  142.9272 LP  0  0  0  0  0  0  0  0  0  0  0  0  # atno 17321 bound_to 7965
  140.0055  143.5698  152.2859 LP  0  0  0  0  0  0  0  0  0  0  0  0  # atno 17342 bound_to 10162
  139.6403  144.7654  151.2353 LP  0  0  0  0  0  0  0  0  0  0  0  0  # atno 17343 bound_to 10162
  156.4359  130.3981  149.6729 LP  0  0  0  0  0  0  0  0  0  0  0  0  # atno 17370 bound_to 10713
  156.3930  130.7636  151.2639 LP  0  0  0  0  0  0  0  0  0  0  0  0  # atno 17371 bound_to 10713
  140.8614  133.8057  155.9269 LP  0  0  0  0  0  0  0  0  0  0  0  0  # atno 17394 bound_to 11000
  140.9045  134.2337  157.5022 LP  0  0  0  0  0  0  0  0  0  0  0  0  # atno 17395 bound_to 11000

$$$$
