AV-unprocessed.smi:2520|AV-procd|sdf|9907|dock7
  -GOLD-   2272013543D 1   1.00000     0.00000
 Structure written by MMmdl.
 41 44  0  0  0  0  0  0  0  0  1 V2000
  155.3895  141.4097  164.2878 O   0  0  0  0  0  0  0  0  0  0  0  0
  154.8120  142.3628  163.7684 C   0  0  0  0  0  0  0  0  0  0  0  0
  154.8259  143.5831  164.3453 N   0  0  0  0  0  0  0  0  0  0  0  0
  155.4272  144.0476  165.5517 C   0  0  0  0  0  0  0  0  0  0  0  0
  155.5776  143.0652  166.5539 C   0  0  0  0  0  0  0  0  0  0  0  0
  156.1555  143.4403  167.7787 C   0  0  0  0  0  0  0  0  0  0  0  0
  156.5444  144.7829  167.9222 C   0  0  0  0  0  0  0  0  0  0  0  0
  156.3784  145.6934  166.9390 N   0  0  0  0  0  0  0  0  0  0  0  0
  155.8274  145.3277  165.7768 N   0  0  0  0  0  0  0  0  0  0  0  0
  154.1410  142.2610  162.6110 N   0  0  0  0  0  0  0  0  0  0  0  0
  153.9486  141.0274  161.8593 C   0  0  2  0  0  0  0  0  0  0  0  0
  155.2281  140.5653  161.1627 C   0  0  1  0  0  0  0  0  0  0  0  0
  156.1444  139.4067  161.3333 C   0  0  0  0  0  0  0  0  0  0  0  0
  156.2599  139.0021  159.8399 C   0  0  0  0  0  0  0  0  0  0  0  0
  155.2441  139.7625  159.1423 O   0  0  0  0  0  0  0  0  0  0  0  0
  154.2653  140.0130  160.1308 C   0  0  2  0  0  0  0  0  0  0  0  0
  153.3903  141.2538  160.4025 C   0  0  0  0  0  0  0  0  0  0  0  0
  151.8758  141.0899  160.2148 C   0  0  0  0  0  0  0  0  0  0  0  0
  151.3719  142.2218  159.3171 C   0  0  0  0  0  0  0  0  0  0  0  0
  152.4140  143.3207  159.4646 C   0  0  0  0  0  0  0  0  0  0  0  0
  153.7214  142.5552  159.6418 C   0  0  0  0  0  0  0  0  0  0  0  0
  154.3612  144.3016  163.8096 H   0  0  0  0  0  0  0  0  0  0  0  0
  155.2593  142.0459  166.3907 H   0  0  0  0  0  0  0  0  0  0  0  0
  156.2949  142.7269  168.5771 H   0  0  0  0  0  0  0  0  0  0  0  0
  156.9942  145.1332  168.8393 H   0  0  0  0  0  0  0  0  0  0  0  0
  153.6975  143.0923  162.2462 H   0  0  0  0  0  0  0  0  0  0  0  0
  153.4465  140.2327  162.4192 H   0  0  0  0  0  0  0  0  0  0  0  0
  155.7921  141.4262  160.7906 H   0  0  0  0  0  0  0  0  0  0  0  0
  157.1042  139.6850  161.7689 H   0  0  0  0  0  0  0  0  0  0  0  0
  155.6943  138.6170  161.9365 H   0  0  0  0  0  0  0  0  0  0  0  0
  157.2401  139.2434  159.4278 H   0  0  0  0  0  0  0  0  0  0  0  0
  156.0921  137.9322  159.7115 H   0  0  0  0  0  0  0  0  0  0  0  0
  153.7728  139.0816  160.4332 H   0  0  0  0  0  0  0  0  0  0  0  0
  151.6178  140.1200  159.7882 H   0  0  0  0  0  0  0  0  0  0  0  0
  151.3703  141.1454  161.1790 H   0  0  0  0  0  0  0  0  0  0  0  0
  151.3477  141.8813  158.2812 H   0  0  0  0  0  0  0  0  0  0  0  0
  150.3676  142.5541  159.5815 H   0  0  0  0  0  0  0  0  0  0  0  0
  152.4335  144.0038  158.6151 H   0  0  0  0  0  0  0  0  0  0  0  0
  152.2072  143.9047  160.3624 H   0  0  0  0  0  0  0  0  0  0  0  0
  154.4653  143.1773  160.1397 H   0  0  0  0  0  0  0  0  0  0  0  0
  154.1287  142.3132  158.6593 H   0  0  0  0  0  0  0  0  0  0  0  0
  1  2  2  0  0  0  0
  2  3  1  0  0  0  0
  2 10  1  0  0  0  0
  3  4  1  0  0  0  0
  3 22  1  0  0  0  0
  4  9  1  0  0  0  0
  4  5  2  0  0  0  0
  5  6  1  0  0  0  0
  5 23  1  0  0  0  0
  6  7  2  0  0  0  0
  6 24  1  0  0  0  0
  7  8  1  0  0  0  0
  7 25  1  0  0  0  0
  8  9  2  0  0  0  0
 10 11  1  0  0  0  0
 10 26  1  0  0  0  0
 11 17  1  0  0  0  0
 11 12  1  0  0  0  0
 11 27  1  0  0  0  0
 12 16  1  0  0  0  0
 12 13  1  0  0  0  0
 12 28  1  0  0  0  0
 13 14  1  0  0  0  0
 13 29  1  0  0  0  0
 13 30  1  0  0  0  0
 14 15  1  0  0  0  0
 14 31  1  0  0  0  0
 14 32  1  0  0  0  0
 15 16  1  0  0  0  0
 16 17  1  0  0  0  0
 16 33  1  0  0  0  0
 17 21  1  0  0  0  0
 17 18  1  0  0  0  0
 18 19  1  0  0  0  0
 18 34  1  0  0  0  0
 18 35  1  0  0  0  0
 19 20  1  0  0  0  0
 19 36  1  0  0  0  0
 19 37  1  0  0  0  0
 20 21  1  0  0  0  0
 20 38  1  0  0  0  0
 20 39  1  0  0  0  0
 21 40  1  0  0  0  0
 21 41  1  0  0  0  0
M  END
> <s_m_source_file>
AV-unprocessed.smi

> <i_m_source_file_index>
2520

> <i_lp_mmshare_version>
43012

> <i_f3d_flags>
0

> <s_epik_input>
bjFuW2NIXVtjSF1bY0hdYzFbTkhdQyg9TylbTkhdW0NAQEhdMltDQEBIXShbQ0gyXVtDSDJdTzMpW0NASF0zQzI0W0NIMl1bQ0gyXVtDSDJdW0NIMl00

> <s_epik_cmdline>
J2VwaWtfcHl0aG9uJywgJy1waCcsICc3LjAnLCAnLXRuJywgJzgnLCAnLW1hJywgJzIwMCcsICctbWV0YWxfYmluZGluZycsICctaW1hZScsICc8aW5maWxlLm1hZT4nLCAnLW9tYWUnLCAnPG91dGZpbGUubWFlPic=

> <r_lp_tautomer_probability>
1

> <r_epik_Ionization_Penalty>
0.00552561

> <r_epik_Ionization_Penalty_Charging>
0

> <r_epik_Ionization_Penalty_Neutral>
0.00552561

> <r_epik_State_Penalty>
-0

> <r_epik_Charging_Adjusted_Penalty>
0

> <i_epik_Tot_Q>
0

> <i_epik_Tot_abs_Q>
0

> <r_epik_Metal_State_Penalty>
-0

> <b_epik_Metal_Only>
0

> <s_lp_Force_Field>
OPLS_2005

> <r_lp_Energy>
83.7492

> <b_lp_Chiralities_Consistent>
1

> <s_lp_Variant>
AV-unprocessed.smi:2520-1

> <Gold.Version>
5.8.1

> <Gold.Id.Protein>
6NUR|6NUR_protein|mol2

> <Gold.PLP.Fitness>
37.8387

> <Gold.PLP.PLP>
-35.1633

> <Gold.PLP.part.hbond>
-4.7970

> <Gold.PLP.part.metal>
0.0000

> <Gold.PLP.part.buried>
0.5190

> <Gold.PLP.part.nonpolar>
-30.1350

> <Gold.PLP.part.repulsive>
0.2766

> <Gold.PLP.ligand.clash>
0.0000

> <Gold.PLP.ligand.torsion>
0.3027

> <Gold.PLP.Chemscore.Hbond>
1.0000

> <Gold.PLP.Chemscore.CHOScore>
0.0000

> <Gold.PLP.Chemscore.Metal>
0.0000

> <Gold.Chemscore.Hbonds>
donor molecule, donor type, donor heavy atom, donor atom, acceptor molecule, acceptor atom, score
      P1  H  7997  8008       L1    15  0.98

> <Gold.PLP.Chemscore.Internal.Correction>
0.2809

> <Gold.Rescore>
     Score         DG    S(hbond)    S(metal)    S(lipo)     H(rot)  DE(clash)    DE(int)     intcor
     14.56     -16.62       0.62        0.00      99.42       1.00       0.38       1.67       ----

> <Gold.Chemscore.Fitness>
14.5634

> <Gold.Chemscore.DG>
-16.6152

> <Gold.Chemscore.ZeroCoef>
-5.4800

> <Gold.Chemscore.Hbond>
0.6178

> <Gold.Chemscore.Metal>
0.0000

> <Gold.Chemscore.Lipo>
99.4174

> <Gold.Chemscore.Internal_Hbond>
0.0000

> <Gold.Chemscore.DEClash>
0.3781

> <Gold.Chemscore.DEInternal>
1.6736

> <Gold.Chemscore.Rot>
1.0000

> <Gold.Chemscore.Internal.Correction>
   9.000000E+99

> <Gold.Chemscore.Hbonds>
donor molecule, donor type, donor heavy atom, donor atom, acceptor molecule, acceptor atom, score
      P1  H  7997  8008       L1    15  0.85

> <Gold.Chemscore.Hbond.Weighted>
-2.0634

> <Gold.Chemscore.Metal.Weighted>
-0.0000

> <Gold.Chemscore.Lipo.Weighted>
-11.6318

> <Gold.Chemscore.Internal_Hbond.Weighted>
0.0000

> <Gold.Chemscore.DEClash.Weighted>
0.3781

> <Gold.Chemscore.DEInternal.Weighted>
1.6736

> <Gold.Chemscore.Rot.Weighted>
2.5600

> <Gold.Chemscore.Internal.Correction.Weighted>
   9.000000E+99

> <Gold.Protein.RotatedTorsions>
[ 6907 6896 6895 6894 ] final  157.72 input  -60.11 | X-H torsion
[ 7974 7965 7964 7962 ] final  -69.12 input  175.53 | X-H torsion
[ 8008 7997 7996 7995 ] final -148.36 input   59.86 | X-H torsion
[ 10167 10162 10161 10158 ] final  173.98 input  -65.29 | X-H torsion
[ 10718 10713 10712 10709 ] final -171.64 input   66.30 | X-H torsion
[ 10763 10752 10751 10750 ] final -120.68 input  -60.55 | X-H torsion
[ 11005 11000 10999 10996 ] final    3.01 input  -57.11 | X-H torsion

> <Gold.Protein.ActiveResidues>
 VAL166  LYS551  ARG553  GLY616  TRP617  ASP618  TYR619  PRO620  LYS621  CYS622 
 ASP623  PHE694  ASN695  SER759  ASP760  ASP761  ALA762  ILE779  LEU786  VAL792 
 PHE793  MET794  SER795  GLU796  ALA797  LYS798  CYS799  TRP800  GLU811  SER814 

> <Gold.Protein.RotatedAtoms>
  152.0110  133.3861  159.4219 H   0  0  0  0  0  0  0  0  0  0  0  0  # atno 6907 bound_to 6896
  150.6899  134.3730  159.5010 H   0  0  0  0  0  0  0  0  0  0  0  0  # atno 6908 bound_to 6896
  152.1491  134.9002  160.0600 H   0  0  0  0  0  0  0  0  0  0  0  0  # atno 6909 bound_to 6896
  145.7078  140.9091  143.0697 H   0  0  0  0  0  0  0  0  0  0  0  0  # atno 7974 bound_to 7965
  155.5904  140.0652  157.2760 H   0  0  0  0  0  0  0  0  0  0  0  0  # atno 8008 bound_to 7997
  154.4307  140.1836  156.1115 H   0  0  0  0  0  0  0  0  0  0  0  0  # atno 8009 bound_to 7997
  156.0237  140.3314  155.7069 H   0  0  0  0  0  0  0  0  0  0  0  0  # atno 8010 bound_to 7997
  139.5126  144.3199  152.0213 H   0  0  0  0  0  0  0  0  0  0  0  0  # atno 10167 bound_to 10162
  156.7438  130.9352  151.3111 H   0  0  0  0  0  0  0  0  0  0  0  0  # atno 10718 bound_to 10713
  154.8650  135.4194  154.2498 H   0  0  0  0  0  0  0  0  0  0  0  0  # atno 10763 bound_to 10752
  153.3447  135.6995  153.6843 H   0  0  0  0  0  0  0  0  0  0  0  0  # atno 10764 bound_to 10752
  153.5807  135.3573  155.2847 H   0  0  0  0  0  0  0  0  0  0  0  0  # atno 10765 bound_to 10752
  140.5979  133.9863  155.8118 H   0  0  0  0  0  0  0  0  0  0  0  0  # atno 11005 bound_to 11000
  144.6950  139.9033  143.7459 LP  0  0  0  0  0  0  0  0  0  0  0  0  # atno 17320 bound_to 7965
  146.0740  139.3728  143.0505 LP  0  0  0  0  0  0  0  0  0  0  0  0  # atno 17321 bound_to 7965
  140.2641  144.4036  150.6175 LP  0  0  0  0  0  0  0  0  0  0  0  0  # atno 17342 bound_to 10162
  140.6136  143.2171  151.6836 LP  0  0  0  0  0  0  0  0  0  0  0  0  # atno 17343 bound_to 10162
  157.6807  130.9137  150.0260 LP  0  0  0  0  0  0  0  0  0  0  0  0  # atno 17370 bound_to 10713
  156.1447  130.3642  149.9529 LP  0  0  0  0  0  0  0  0  0  0  0  0  # atno 17371 bound_to 10713
  141.0891  133.9944  157.3265 LP  0  0  0  0  0  0  0  0  0  0  0  0  # atno 17394 bound_to 11000
  139.9245  135.0201  156.8185 LP  0  0  0  0  0  0  0  0  0  0  0  0  # atno 17395 bound_to 11000

$$$$
