AV-unprocessed.smi:2066|AV-procd|sdf|8422|dock5
  -GOLD-   2272011113D 1   1.00000     0.00000
 Structure written by MMmdl.
 39 40  0  0  0  0  0  0  0  0  3 V2000
  151.3042  137.4661  154.5060 C   0  0  0  0  0  0  0  0  0  0  0  0
  150.0496  136.9434  155.2501 C   0  0  0  0  0  0  0  0  0  0  0  0
  150.1449  135.3972  155.2123 C   0  0  0  0  0  0  0  0  0  0  0  0
  150.0429  137.4318  156.7306 C   0  0  0  0  0  0  0  0  0  0  0  0
  149.0524  136.7495  157.5626 N   0  0  0  0  0  0  0  0  0  0  0  0
  149.2137  136.3585  158.8350 C   0  0  0  0  0  0  0  0  0  0  0  0
  150.2783  136.5767  159.4175 O   0  0  0  0  0  0  0  0  0  0  0  0
  148.1342  135.7274  159.3480 N   0  5  0  0  0  0  0  0  0  0  0  0
  148.0204  135.5672  160.6765 C   0  0  0  0  0  0  0  0  0  0  0  0
  148.1832  136.5674  161.5501 N   0  0  0  0  0  0  0  0  0  0  0  0
  148.0179  136.1751  162.8796 C   0  0  0  0  0  0  0  0  0  0  0  0
  147.7115  134.8475  163.0208 C   0  0  0  0  0  0  0  0  0  0  0  0
  147.6225  134.0452  161.4788 S   0  0  0  0  0  0  0  0  0  0  0  0
  148.8143  137.4008  154.5176 N   0  3  0  0  0  0  0  0  0  0  0  0
  147.5258  136.8128  154.9813 C   0  0  0  0  0  0  0  0  0  0  0  0
  146.3794  137.2111  154.0366 C   0  0  0  0  0  0  0  0  0  0  0  0
  146.2879  138.6266  153.9603 O   0  0  0  0  0  0  0  0  0  0  0  0
  147.4770  139.2016  153.4374 C   0  0  0  0  0  0  0  0  0  0  0  0
  148.6599  138.8755  154.3638 C   0  0  0  0  0  0  0  0  0  0  0  0
  152.2165  136.9910  154.8681 H   0  0  0  0  0  0  0  0  0  0  0  0
  151.4493  138.5379  154.6383 H   0  0  0  0  0  0  0  0  0  0  0  0
  151.2461  137.2637  153.4360 H   0  0  0  0  0  0  0  0  0  0  0  0
  151.1187  135.0446  155.5544 H   0  0  0  0  0  0  0  0  0  0  0  0
  150.0043  135.0143  154.2008 H   0  0  0  0  0  0  0  0  0  0  0  0
  149.4088  134.9205  155.8592 H   0  0  0  0  0  0  0  0  0  0  0  0
  151.0289  137.3339  157.1846 H   0  0  0  0  0  0  0  0  0  0  0  0
  149.7999  138.4926  156.7781 H   0  0  0  0  0  0  0  0  0  0  0  0
  148.1607  136.5497  157.1335 H   0  0  0  0  0  0  0  0  0  0  0  0
  148.1355  136.9084  163.6634 H   0  0  0  0  0  0  0  0  0  0  0  0
  147.5331  134.2955  163.9311 H   0  0  0  0  0  0  0  0  0  0  0  0
  147.5659  135.7258  155.0072 H   0  0  0  0  0  0  0  0  0  0  0  0
  147.2976  137.1517  155.9920 H   0  0  0  0  0  0  0  0  0  0  0  0
  146.5300  136.7893  153.0414 H   0  0  0  0  0  0  0  0  0  0  0  0
  145.4335  136.8169  154.4082 H   0  0  0  0  0  0  0  0  0  0  0  0
  147.6610  138.8370  152.4256 H   0  0  0  0  0  0  0  0  0  0  0  0
  147.3430  140.2811  153.3669 H   0  0  0  0  0  0  0  0  0  0  0  0
  148.4908  139.3429  155.3340 H   0  0  0  0  0  0  0  0  0  0  0  0
  149.5524  139.3308  153.9393 H   0  0  0  0  0  0  0  0  0  0  0  0
  148.9380  137.0509  153.5785 H   0  0  0  0  0  0  0  0  0  0  0  0
  1  2  1  0  0  0  0
  1 20  1  0  0  0  0
  1 21  1  0  0  0  0
  1 22  1  0  0  0  0
  2  3  1  0  0  0  0
  2  4  1  0  0  0  0
  2 14  1  0  0  0  0
  3 23  1  0  0  0  0
  3 24  1  0  0  0  0
  3 25  1  0  0  0  0
  4  5  1  0  0  0  0
  4 26  1  0  0  0  0
  4 27  1  0  0  0  0
  5  6  1  0  0  0  0
  5 28  1  0  0  0  0
  6  7  2  0  0  0  0
  6  8  1  0  0  0  0
  8  9  1  0  0  0  0
  9 13  1  0  0  0  0
  9 10  2  0  0  0  0
 10 11  1  0  0  0  0
 11 12  2  0  0  0  0
 11 29  1  0  0  0  0
 12 13  1  0  0  0  0
 12 30  1  0  0  0  0
 14 19  1  0  0  0  0
 14 15  1  0  0  0  0
 14 39  1  0  0  0  0
 15 16  1  0  0  0  0
 15 31  1  0  0  0  0
 15 32  1  0  0  0  0
 16 17  1  0  0  0  0
 16 33  1  0  0  0  0
 16 34  1  0  0  0  0
 17 18  1  0  0  0  0
 18 19  1  0  0  0  0
 18 35  1  0  0  0  0
 18 36  1  0  0  0  0
 19 37  1  0  0  0  0
 19 38  1  0  0  0  0
M  CHG  1   8  -1
M  CHG  1  14   1
M  END
> <s_m_source_file>
AV-unprocessed.smi

> <i_m_source_file_index>
2066

> <i_lp_mmshare_version>
43012

> <i_f3d_flags>
0

> <s_epik_input>
W0NIMl0xW0NIMl1PW0NIMl1bQ0gyXU4xQyhbQ0gzXSkoW0NIM10pW0NIMl1bTkhdQyg9TylbTkhdYzJuW2NIXVtjSF1zMg==

> <s_epik_cmdline>
J2VwaWtfcHl0aG9uJywgJy1waCcsICc3LjAnLCAnLXRuJywgJzgnLCAnLW1hJywgJzIwMCcsICctbWV0YWxfYmluZGluZycsICctaW1hZScsICc8aW5maWxlLm1hZT4nLCAnLW9tYWUnLCAnPG91dGZpbGUubWFlPic=

> <r_lp_tautomer_probability>
0.999

> <r_epik_Ionization_Penalty>
6.71078

> <r_epik_Ionization_Penalty_Charging>
5.8797

> <r_epik_Ionization_Penalty_Neutral>
0.831074

> <r_epik_State_Penalty>
6.07743

> <r_epik_Charging_Adjusted_Penalty>
11.9571

> <i_epik_Tot_Q>
0

> <i_epik_Tot_abs_Q>
2

> <r_epik_Metal_State_Penalty>
2.08929

> <b_epik_Metal_Only>
1

> <s_lp_Force_Field>
OPLS_2005

> <r_lp_Energy>
15.1529

> <b_lp_Chiralities_Consistent>
1

> <s_lp_Variant>
AV-unprocessed.smi:2066-4

> <Gold.Version>
5.8.1

> <Gold.Id.Protein>
6NUR|6NUR_protein|mol2

> <Gold.PLP.Fitness>
40.5938

> <Gold.PLP.PLP>
-30.1872

> <Gold.PLP.part.hbond>
-3.7161

> <Gold.PLP.part.metal>
0.0000

> <Gold.PLP.part.buried>
-3.5559

> <Gold.PLP.part.nonpolar>
-23.6761

> <Gold.PLP.part.repulsive>
0.2033

> <Gold.PLP.ligand.clash>
0.0127

> <Gold.PLP.ligand.torsion>
0.7686

> <Gold.PLP.Chemscore.Hbond>
3.9279

> <Gold.PLP.Chemscore.CHOScore>
0.0000

> <Gold.PLP.Chemscore.Metal>
0.0000

> <Gold.Chemscore.Hbonds>
donor molecule, donor type, donor heavy atom, donor atom, acceptor molecule, acceptor atom, score
      L1  H    14    39       P1  7948  2.00
      P1  H  6896  6907       L1     7  1.00
      P1  H  6931  6943       L1    10  0.85

> <Gold.PLP.Chemscore.Internal.Correction>
0.1729

> <Gold.Rescore>
     Score         DG    S(hbond)    S(metal)    S(lipo)     H(rot)  DE(clash)    DE(int)     intcor
     13.19     -16.52       2.36        0.00      61.85       1.59       0.52       2.81       ----

> <Gold.Chemscore.Fitness>
13.1935

> <Gold.Chemscore.DG>
-16.5173

> <Gold.Chemscore.ZeroCoef>
-5.4800

> <Gold.Chemscore.Hbond>
2.3587

> <Gold.Chemscore.Metal>
0.0000

> <Gold.Chemscore.Lipo>
61.8477

> <Gold.Chemscore.Internal_Hbond>
0.0000

> <Gold.Chemscore.DEClash>
0.5167

> <Gold.Chemscore.DEInternal>
2.8071

> <Gold.Chemscore.Rot>
1.5926

> <Gold.Chemscore.Internal.Correction>
   9.000000E+99

> <Gold.Chemscore.Hbonds>
donor molecule, donor type, donor heavy atom, donor atom, acceptor molecule, acceptor atom, score
      L1  H    14    39       P1  7948  1.00
      P1  H  6896  6907       L1     7  0.60
      P1  H  6931  6943       L1    10  0.15

> <Gold.Chemscore.Hbond.Weighted>
-7.8782

> <Gold.Chemscore.Metal.Weighted>
-0.0000

> <Gold.Chemscore.Lipo.Weighted>
-7.2362

> <Gold.Chemscore.Internal_Hbond.Weighted>
0.0000

> <Gold.Chemscore.DEClash.Weighted>
0.5167

> <Gold.Chemscore.DEInternal.Weighted>
2.8071

> <Gold.Chemscore.Rot.Weighted>
4.0770

> <Gold.Chemscore.Internal.Correction.Weighted>
   9.000000E+99

> <Gold.Protein.RotatedTorsions>
[ 6907 6896 6895 6894 ] final  -37.07 input  -60.11 | X-H torsion
[ 7974 7965 7964 7962 ] final   32.80 input  175.53 | X-H torsion
[ 8008 7997 7996 7995 ] final   92.31 input   59.86 | X-H torsion
[ 10167 10162 10161 10158 ] final   36.69 input  -65.29 | X-H torsion
[ 10718 10713 10712 10709 ] final  126.72 input   66.30 | X-H torsion
[ 10763 10752 10751 10750 ] final   71.45 input  -60.55 | X-H torsion
[ 11005 11000 10999 10996 ] final  -46.81 input  -57.11 | X-H torsion

> <Gold.Protein.ActiveResidues>
 VAL166  LYS551  ARG553  GLY616  TRP617  ASP618  TYR619  PRO620  LYS621  CYS622 
 ASP623  PHE694  ASN695  SER759  ASP760  ASP761  ALA762  ILE779  LEU786  VAL792 
 PHE793  MET794  SER795  GLU796  ALA797  LYS798  CYS799  TRP800  GLU811  SER814 

> <Gold.Protein.RotatedAtoms>
  151.0193  134.9457  159.8050 H   0  0  0  0  0  0  0  0  0  0  0  0  # atno 6907 bound_to 6896
  152.5321  134.2924  159.9058 H   0  0  0  0  0  0  0  0  0  0  0  0  # atno 6908 bound_to 6896
  151.2932  133.4114  159.2668 H   0  0  0  0  0  0  0  0  0  0  0  0  # atno 6909 bound_to 6896
  146.1463  139.6480  142.9129 H   0  0  0  0  0  0  0  0  0  0  0  0  # atno 7974 bound_to 7965
  156.0339  140.3327  155.7169 H   0  0  0  0  0  0  0  0  0  0  0  0  # atno 8008 bound_to 7997
  155.5844  140.0640  157.2792 H   0  0  0  0  0  0  0  0  0  0  0  0  # atno 8009 bound_to 7997
  154.4364  140.1838  156.0998 H   0  0  0  0  0  0  0  0  0  0  0  0  # atno 8010 bound_to 7997
  140.4103  144.1601  150.6139 H   0  0  0  0  0  0  0  0  0  0  0  0  # atno 10167 bound_to 10162
  157.5395  131.1097  150.8881 H   0  0  0  0  0  0  0  0  0  0  0  0  # atno 10718 bound_to 10713
  153.0400  135.5136  154.7595 H   0  0  0  0  0  0  0  0  0  0  0  0  # atno 10763 bound_to 10752
  154.6540  135.2929  154.9953 H   0  0  0  0  0  0  0  0  0  0  0  0  # atno 10764 bound_to 10752
  154.0827  135.6661  153.4893 H   0  0  0  0  0  0  0  0  0  0  0  0  # atno 10765 bound_to 10752
  141.0602  133.6712  156.3208 H   0  0  0  0  0  0  0  0  0  0  0  0  # atno 11005 bound_to 11000
  145.4930  141.0438  143.2583 LP  0  0  0  0  0  0  0  0  0  0  0  0  # atno 17320 bound_to 7965
  144.7850  139.6445  143.7138 LP  0  0  0  0  0  0  0  0  0  0  0  0  # atno 17321 bound_to 7965
  140.4645  143.2436  151.9175 LP  0  0  0  0  0  0  0  0  0  0  0  0  # atno 17342 bound_to 10162
  139.4782  144.5434  151.8495 LP  0  0  0  0  0  0  0  0  0  0  0  0  # atno 17343 bound_to 10162
  156.9438  130.5394  149.5281 LP  0  0  0  0  0  0  0  0  0  0  0  0  # atno 17370 bound_to 10713
  156.0485  130.5558  150.8936 LP  0  0  0  0  0  0  0  0  0  0  0  0  # atno 17371 bound_to 10713
  140.5884  134.5676  157.5494 LP  0  0  0  0  0  0  0  0  0  0  0  0  # atno 17394 bound_to 11000
  139.9426  134.7760  156.0641 LP  0  0  0  0  0  0  0  0  0  0  0  0  # atno 17395 bound_to 11000

$$$$
