AV-unprocessed.smi:2712|AV-procd|sdf|10474|dock7
  -GOLD-   2272014513D 1   1.00000     0.00000
 Structure written by MMmdl.
 52 53  0  0  0  0  0  0  0  0  1 V2000
  145.6366  137.5999  162.4951 C   0  0  0  0  0  0  0  0  0  0  0  0
  146.5420  136.8338  161.5765 C   0  0  0  0  0  0  0  0  0  0  0  0
  147.1844  135.5909  161.9590 C   0  0  0  0  0  0  0  0  0  0  0  0
  147.9866  134.9610  161.0744 C   0  0  0  0  0  0  0  0  0  0  0  0
  148.2240  135.4967  159.7359 C   0  0  0  0  0  0  0  0  0  0  0  0
  148.9374  134.9391  158.9026 O   0  0  0  0  0  0  0  0  0  0  0  0
  147.5675  136.6695  159.4888 N   0  0  0  0  0  0  0  0  0  0  0  0
  147.6681  137.3411  158.1821 C   0  0  0  0  0  0  0  0  0  0  0  0
  148.6336  138.5391  158.1447 C   0  0  0  0  0  0  0  0  0  0  0  0
  149.0049  139.0433  159.2040 O   0  0  0  0  0  0  0  0  0  0  0  0
  149.0385  138.9845  156.9431 N   0  0  0  0  0  0  0  0  0  0  0  0
  149.9736  140.0778  156.6970 C   0  0  2  0  0  0  0  0  0  0  0  0
  151.3820  139.6567  157.1563 C   0  0  0  0  0  0  0  0  0  0  0  0
  151.6567  139.8607  158.6537 C   0  0  0  0  0  0  0  0  0  0  0  0
  152.2180  141.2570  158.9814 C   0  0  0  0  0  0  0  0  0  0  0  0
  151.2107  142.4390  158.9119 C   0  0  1  0  0  0  0  0  0  0  0  0
  151.8428  143.8199  159.3250 C   0  0  0  0  0  0  0  0  0  0  0  0
  152.6367  143.7164  160.6456 C   0  0  0  0  0  0  0  0  0  0  0  0
  150.7554  144.9055  159.4991 C   0  0  0  0  0  0  0  0  0  0  0  0
  152.7917  144.3369  158.2171 C   0  0  0  0  0  0  0  0  0  0  0  0
  150.4765  142.4902  157.5404 C   0  0  0  0  0  0  0  0  0  0  0  0
  149.4394  141.3700  157.3503 C   0  0  0  0  0  0  0  0  0  0  0  0
  146.7473  137.3195  160.3963 N   0  0  0  0  0  0  0  0  0  0  0  0
  145.4804  137.0650  163.4321 H   0  0  0  0  0  0  0  0  0  0  0  0
  144.6606  137.7597  162.0358 H   0  0  0  0  0  0  0  0  0  0  0  0
  146.0621  138.5749  162.7337 H   0  0  0  0  0  0  0  0  0  0  0  0
  147.0184  135.1808  162.9441 H   0  0  0  0  0  0  0  0  0  0  0  0
  148.4653  134.0358  161.3611 H   0  0  0  0  0  0  0  0  0  0  0  0
  147.9928  136.6261  157.4241 H   0  0  0  0  0  0  0  0  0  0  0  0
  146.6828  137.6781  157.8549 H   0  0  0  0  0  0  0  0  0  0  0  0
  148.6784  138.5104  156.1276 H   0  0  0  0  0  0  0  0  0  0  0  0
  150.0334  140.2356  155.6185 H   0  0  0  0  0  0  0  0  0  0  0  0
  151.5372  138.6068  156.9030 H   0  0  0  0  0  0  0  0  0  0  0  0
  152.1319  140.1960  156.5763 H   0  0  0  0  0  0  0  0  0  0  0  0
  150.7730  139.6393  159.2536 H   0  0  0  0  0  0  0  0  0  0  0  0
  152.4063  139.1286  158.9557 H   0  0  0  0  0  0  0  0  0  0  0  0
  152.6131  141.1818  159.9932 H   0  0  0  0  0  0  0  0  0  0  0  0
  153.0779  141.4548  158.3418 H   0  0  0  0  0  0  0  0  0  0  0  0
  150.4533  142.2267  159.6679 H   0  0  0  0  0  0  0  0  0  0  0  0
  153.0526  144.6838  160.9296 H   0  0  0  0  0  0  0  0  0  0  0  0
  153.4746  143.0238  160.5647 H   0  0  0  0  0  0  0  0  0  0  0  0
  152.0107  143.3825  161.4728 H   0  0  0  0  0  0  0  0  0  0  0  0
  150.1318  144.7270  160.3749 H   0  0  0  0  0  0  0  0  0  0  0  0
  150.1036  144.9611  158.6263 H   0  0  0  0  0  0  0  0  0  0  0  0
  151.1968  145.8929  159.6386 H   0  0  0  0  0  0  0  0  0  0  0  0
  153.1355  145.3497  158.4309 H   0  0  0  0  0  0  0  0  0  0  0  0
  152.2938  144.3654  157.2473 H   0  0  0  0  0  0  0  0  0  0  0  0
  153.6906  143.7318  158.1109 H   0  0  0  0  0  0  0  0  0  0  0  0
  149.9248  143.4225  157.4519 H   0  0  0  0  0  0  0  0  0  0  0  0
  151.1865  142.4997  156.7129 H   0  0  0  0  0  0  0  0  0  0  0  0
  148.6318  141.7490  156.7224 H   0  0  0  0  0  0  0  0  0  0  0  0
  148.9682  141.1462  158.3085 H   0  0  0  0  0  0  0  0  0  0  0  0
  1  2  1  0  0  0  0
  1 24  1  0  0  0  0
  1 25  1  0  0  0  0
  1 26  1  0  0  0  0
  2 23  2  0  0  0  0
  2  3  1  0  0  0  0
  3  4  2  0  0  0  0
  3 27  1  0  0  0  0
  4  5  1  0  0  0  0
  4 28  1  0  0  0  0
  5  6  2  0  0  0  0
  5  7  1  0  0  0  0
  7  8  1  0  0  0  0
  7 23  1  0  0  0  0
  8  9  1  0  0  0  0
  8 29  1  0  0  0  0
  8 30  1  0  0  0  0
  9 10  2  0  0  0  0
  9 11  1  0  0  0  0
 11 12  1  0  0  0  0
 11 31  1  0  0  0  0
 12 22  1  0  0  0  0
 12 13  1  0  0  0  0
 12 32  1  0  0  0  0
 13 14  1  0  0  0  0
 13 33  1  0  0  0  0
 13 34  1  0  0  0  0
 14 15  1  0  0  0  0
 14 35  1  0  0  0  0
 14 36  1  0  0  0  0
 15 16  1  0  0  0  0
 15 37  1  0  0  0  0
 15 38  1  0  0  0  0
 16 17  1  0  0  0  0
 16 21  1  0  0  0  0
 16 39  1  0  0  0  0
 17 18  1  0  0  0  0
 17 19  1  0  0  0  0
 17 20  1  0  0  0  0
 18 40  1  0  0  0  0
 18 41  1  0  0  0  0
 18 42  1  0  0  0  0
 19 43  1  0  0  0  0
 19 44  1  0  0  0  0
 19 45  1  0  0  0  0
 20 46  1  0  0  0  0
 20 47  1  0  0  0  0
 20 48  1  0  0  0  0
 21 22  1  0  0  0  0
 21 49  1  0  0  0  0
 21 50  1  0  0  0  0
 22 51  1  0  0  0  0
 22 52  1  0  0  0  0
M  END
> <s_m_source_file>
AV-unprocessed.smi

> <i_m_source_file_index>
2712

> <i_lp_mmshare_version>
43012

> <i_f3d_flags>
0

> <s_epik_input>
W0NIM11jMVtjSF1bY0hdYyg9TyluKG4xKVtDSDJdQyg9TylbTkhdW0NAQEhdMltDSDJdW0NIMl1bQ0gyXVtDQEBIXShDKFtDSDNdKShbQ0gzXSlbQ0gzXSlbQ0gyXVtDSDJdMg==

> <s_epik_cmdline>
J2VwaWtfcHl0aG9uJywgJy1waCcsICc3LjAnLCAnLXRuJywgJzgnLCAnLW1hJywgJzIwMCcsICctbWV0YWxfYmluZGluZycsICctaW1hZScsICc8aW5maWxlLm1hZT4nLCAnLW9tYWUnLCAnPG91dGZpbGUubWFlPic=

> <r_lp_tautomer_probability>
1

> <r_epik_Ionization_Penalty>
8.71758e-07

> <r_epik_Ionization_Penalty_Charging>
8.50442e-07

> <r_epik_Ionization_Penalty_Neutral>
2.13165e-08

> <r_epik_State_Penalty>
-0

> <r_epik_Charging_Adjusted_Penalty>
8.50442e-07

> <i_epik_Tot_Q>
0

> <i_epik_Tot_abs_Q>
0

> <r_epik_Metal_State_Penalty>
-0

> <b_epik_Metal_Only>
0

> <s_lp_Force_Field>
OPLS_2005

> <r_lp_Energy>
38.8827

> <b_lp_Chiralities_Consistent>
1

> <s_lp_Variant>
AV-unprocessed.smi:2712-1

> <Gold.Version>
5.8.1

> <Gold.Id.Protein>
6NUR|6NUR_protein|mol2

> <Gold.PLP.Fitness>
42.0627

> <Gold.PLP.PLP>
-37.5470

> <Gold.PLP.part.hbond>
-3.9833

> <Gold.PLP.part.metal>
0.0000

> <Gold.PLP.part.buried>
-2.8207

> <Gold.PLP.part.nonpolar>
-32.1348

> <Gold.PLP.part.repulsive>
0.0263

> <Gold.PLP.ligand.clash>
0.0000

> <Gold.PLP.ligand.torsion>
0.6361

> <Gold.PLP.Chemscore.Hbond>
1.9000

> <Gold.PLP.Chemscore.CHOScore>
0.0000

> <Gold.PLP.Chemscore.Metal>
0.0000

> <Gold.Chemscore.Hbonds>
donor molecule, donor type, donor heavy atom, donor atom, acceptor molecule, acceptor atom, score
      P1  H  6896  6907       L1     6  1.00
      P1  H  6934  6947       L1    23  0.85

> <Gold.PLP.Chemscore.Internal.Correction>
0.0880

> <Gold.Rescore>
     Score         DG    S(hbond)    S(metal)    S(lipo)     H(rot)  DE(clash)    DE(int)     intcor
     16.21     -21.01       1.45        0.00     124.37       1.52       2.00       2.79       ----

> <Gold.Chemscore.Fitness>
16.2146

> <Gold.Chemscore.DG>
-21.0051

> <Gold.Chemscore.ZeroCoef>
-5.4800

> <Gold.Chemscore.Hbond>
1.4538

> <Gold.Chemscore.Metal>
0.0000

> <Gold.Chemscore.Lipo>
124.3660

> <Gold.Chemscore.Internal_Hbond>
0.0000

> <Gold.Chemscore.DEClash>
2.0015

> <Gold.Chemscore.DEInternal>
2.7890

> <Gold.Chemscore.Rot>
1.5162

> <Gold.Chemscore.Internal.Correction>
   9.000000E+99

> <Gold.Chemscore.Hbonds>
donor molecule, donor type, donor heavy atom, donor atom, acceptor molecule, acceptor atom, score
      P1  H  6896  6907       L1     6  0.96
      P1  H  6934  6947       L1    23  0.14

> <Gold.Chemscore.Hbond.Weighted>
-4.8557

> <Gold.Chemscore.Metal.Weighted>
-0.0000

> <Gold.Chemscore.Lipo.Weighted>
-14.5508

> <Gold.Chemscore.Internal_Hbond.Weighted>
0.0000

> <Gold.Chemscore.DEClash.Weighted>
2.0015

> <Gold.Chemscore.DEInternal.Weighted>
2.7890

> <Gold.Chemscore.Rot.Weighted>
3.8814

> <Gold.Chemscore.Internal.Correction.Weighted>
   9.000000E+99

> <Gold.Protein.RotatedTorsions>
[ 6907 6896 6895 6894 ] final  -87.10 input  -60.11 | X-H torsion
[ 7974 7965 7964 7962 ] final  176.98 input  175.53 | X-H torsion
[ 8008 7997 7996 7995 ] final   44.91 input   59.86 | X-H torsion
[ 10167 10162 10161 10158 ] final  -85.92 input  -65.29 | X-H torsion
[ 10718 10713 10712 10709 ] final  -15.39 input   66.30 | X-H torsion
[ 10763 10752 10751 10750 ] final  171.22 input  -60.55 | X-H torsion
[ 11005 11000 10999 10996 ] final  -19.02 input  -57.11 | X-H torsion

> <Gold.Protein.ActiveResidues>
 VAL166  LYS551  ARG553  GLY616  TRP617  ASP618  TYR619  PRO620  LYS621  CYS622 
 ASP623  PHE694  ASN695  SER759  ASP760  ASP761  ALA762  ILE779  LEU786  VAL792 
 PHE793  MET794  SER795  GLU796  ALA797  LYS798  CYS799  TRP800  GLU811  SER814 

> <Gold.Protein.RotatedAtoms>
  150.6866  134.2948  159.4681 H   0  0  0  0  0  0  0  0  0  0  0  0  # atno 6907 bound_to 6896
  152.0849  134.9443  160.0582 H   0  0  0  0  0  0  0  0  0  0  0  0  # atno 6908 bound_to 6896
  152.0782  133.4105  159.4526 H   0  0  0  0  0  0  0  0  0  0  0  0  # atno 6909 bound_to 6896
  144.7176  140.0178  143.6440 H   0  0  0  0  0  0  0  0  0  0  0  0  # atno 7974 bound_to 7965
  155.3271  140.3400  155.4240 H   0  0  0  0  0  0  0  0  0  0  0  0  # atno 8008 bound_to 7997
  156.1880  140.1687  156.8184 H   0  0  0  0  0  0  0  0  0  0  0  0  # atno 8009 bound_to 7997
  154.5409  140.0725  156.8491 H   0  0  0  0  0  0  0  0  0  0  0  0  # atno 8010 bound_to 7997
  140.3991  143.2670  151.9165 H   0  0  0  0  0  0  0  0  0  0  0  0  # atno 10167 bound_to 10162
  156.6024  130.4827  149.6234 H   0  0  0  0  0  0  0  0  0  0  0  0  # atno 10718 bound_to 10713
  154.4087  135.2756  155.2050 H   0  0  0  0  0  0  0  0  0  0  0  0  # atno 10763 bound_to 10752
  154.4045  135.6037  153.5920 H   0  0  0  0  0  0  0  0  0  0  0  0  # atno 10764 bound_to 10752
  152.9831  135.5934  154.4366 H   0  0  0  0  0  0  0  0  0  0  0  0  # atno 10765 bound_to 10752
  140.8325  133.7986  155.9774 H   0  0  0  0  0  0  0  0  0  0  0  0  # atno 11005 bound_to 11000
  146.0206  139.3247  143.0815 LP  0  0  0  0  0  0  0  0  0  0  0  0  # atno 17320 bound_to 7965
  145.8573  140.9495  143.0718 LP  0  0  0  0  0  0  0  0  0  0  0  0  # atno 17321 bound_to 7965
  139.4785  144.5651  151.8178 LP  0  0  0  0  0  0  0  0  0  0  0  0  # atno 17342 bound_to 10162
  140.4758  144.1520  150.5925 LP  0  0  0  0  0  0  0  0  0  0  0  0  # atno 17343 bound_to 10162
  156.2458  130.6878  151.1598 LP  0  0  0  0  0  0  0  0  0  0  0  0  # atno 17370 bound_to 10713
  157.7276  131.0638  150.5858 LP  0  0  0  0  0  0  0  0  0  0  0  0  # atno 17371 bound_to 10713
  140.8982  134.2411  157.5056 LP  0  0  0  0  0  0  0  0  0  0  0  0  # atno 17394 bound_to 11000
  139.8704  134.9694  156.4665 LP  0  0  0  0  0  0  0  0  0  0  0  0  # atno 17395 bound_to 11000

$$$$
