AV-unprocessed.smi:3322|AV-procd|sdf|12776|dock3
  -GOLD-   2272019123D 1   1.00000     0.00000
 Structure written by MMmdl.
 38 39  0  0  0  0  0  0  0  0  1 V2000
  151.9073  140.6268  157.8054 C   0  0  0  0  0  0  0  0  0  0  0  0
  150.5383  141.2285  157.4474 C   0  0  1  0  0  0  0  0  0  0  0  0
  150.5103  142.6420  157.8681 N   0  0  0  0  0  0  0  0  0  0  0  0
  151.5830  143.4479  157.2919 C   0  0  0  0  0  0  0  0  0  0  0  0
  152.1051  144.4565  158.3288 C   0  0  0  0  0  0  0  0  0  0  0  0
  152.3127  143.8518  159.6334 N   0  0  0  0  0  0  0  0  0  0  0  0
  151.8567  144.2873  160.8599 C   0  0  0  0  0  0  0  0  0  0  0  0
  152.2923  143.3939  161.7963 C   0  0  0  0  0  0  0  0  0  0  0  0
  153.0164  142.4335  161.0358 C   0  0  0  0  0  0  0  0  0  0  0  0
  153.0267  142.7101  159.7419 N   0  0  0  0  0  0  0  0  0  0  0  0
  150.2441  141.0193  155.9422 C   0  0  0  0  0  0  0  0  0  0  0  0
  151.1254  140.5164  155.2424 O   0  0  0  0  0  0  0  0  0  0  0  0
  149.0423  141.3779  155.4227 N   0  0  0  0  0  0  0  0  0  0  0  0
  148.7185  141.2268  153.9994 C   0  0  0  0  0  0  0  0  0  0  0  0
  147.5808  140.2009  153.8592 C   0  0  0  0  0  0  0  0  0  0  0  0
  146.4490  140.6443  154.6020 O   0  0  0  0  0  0  0  0  0  0  0  0
  146.7309  140.8261  155.9866 C   0  0  0  0  0  0  0  0  0  0  0  0
  147.8658  141.8523  156.1616 C   0  0  0  0  0  0  0  0  0  0  0  0
  151.9566  139.5635  157.5701 H   0  0  0  0  0  0  0  0  0  0  0  0
  152.1133  140.7313  158.8713 H   0  0  0  0  0  0  0  0  0  0  0  0
  152.7142  141.1221  157.2634 H   0  0  0  0  0  0  0  0  0  0  0  0
  149.7770  140.7252  158.0412 H   0  0  0  0  0  0  0  0  0  0  0  0
  149.6236  143.0733  157.6480 H   0  0  0  0  0  0  0  0  0  0  0  0
  152.4056  142.8095  156.9700 H   0  0  0  0  0  0  0  0  0  0  0  0
  151.2235  143.9786  156.4092 H   0  0  0  0  0  0  0  0  0  0  0  0
  153.0348  144.9176  157.9904 H   0  0  0  0  0  0  0  0  0  0  0  0
  151.3840  145.2658  158.4467 H   0  0  0  0  0  0  0  0  0  0  0  0
  151.2658  145.1855  160.9623 H   0  0  0  0  0  0  0  0  0  0  0  0
  152.1199  143.4217  162.8619 H   0  0  0  0  0  0  0  0  0  0  0  0
  153.5309  141.5494  161.3828 H   0  0  0  0  0  0  0  0  0  0  0  0
  148.4060  142.1910  153.5961 H   0  0  0  0  0  0  0  0  0  0  0  0
  149.5709  140.9130  153.3955 H   0  0  0  0  0  0  0  0  0  0  0  0
  147.2961  140.0928  152.8126 H   0  0  0  0  0  0  0  0  0  0  0  0
  147.8977  139.2170  154.2089 H   0  0  0  0  0  0  0  0  0  0  0  0
  145.8271  141.1749  156.4864 H   0  0  0  0  0  0  0  0  0  0  0  0
  146.9980  139.8702  156.4400 H   0  0  0  0  0  0  0  0  0  0  0  0
  148.0318  142.0038  157.2249 H   0  0  0  0  0  0  0  0  0  0  0  0
  147.5596  142.8215  155.7653 H   0  0  0  0  0  0  0  0  0  0  0  0
  1  2  1  0  0  0  0
  1 19  1  0  0  0  0
  1 20  1  0  0  0  0
  1 21  1  0  0  0  0
  2  3  1  0  0  0  0
  2 11  1  0  0  0  0
  2 22  1  0  0  0  0
  3  4  1  0  0  0  0
  3 23  1  0  0  0  0
  4  5  1  0  0  0  0
  4 24  1  0  0  0  0
  4 25  1  0  0  0  0
  5  6  1  0  0  0  0
  5 26  1  0  0  0  0
  5 27  1  0  0  0  0
  6 10  1  0  0  0  0
  6  7  1  0  0  0  0
  7  8  2  0  0  0  0
  7 28  1  0  0  0  0
  8  9  1  0  0  0  0
  8 29  1  0  0  0  0
  9 10  2  0  0  0  0
  9 30  1  0  0  0  0
 11 12  2  0  0  0  0
 11 13  1  0  0  0  0
 13 18  1  0  0  0  0
 13 14  1  0  0  0  0
 14 15  1  0  0  0  0
 14 31  1  0  0  0  0
 14 32  1  0  0  0  0
 15 16  1  0  0  0  0
 15 33  1  0  0  0  0
 15 34  1  0  0  0  0
 16 17  1  0  0  0  0
 17 18  1  0  0  0  0
 17 35  1  0  0  0  0
 17 36  1  0  0  0  0
 18 37  1  0  0  0  0
 18 38  1  0  0  0  0
M  END
> <s_m_source_file>
AV-unprocessed.smi

> <i_m_source_file_index>
3322

> <i_lp_mmshare_version>
43012

> <i_f3d_flags>
0

> <s_epik_input>
W0NIMl0xW0NIMl1PW0NIMl1bQ0gyXU4xQyg9TylbQ0BIXShbQ0gzXSlbTkhdW0NIMl1bQ0gyXW4yW2NIXVtjSF1bY0hdbjI=

> <s_epik_cmdline>
J2VwaWtfcHl0aG9uJywgJy1waCcsICc3LjAnLCAnLXRuJywgJzgnLCAnLW1hJywgJzIwMCcsICctbWV0YWxfYmluZGluZycsICctaW1hZScsICc8aW5maWxlLm1hZT4nLCAnLW9tYWUnLCAnPG91dGZpbGUubWFlPic=

> <r_lp_tautomer_probability>
1

> <r_epik_Ionization_Penalty>
0.511228

> <r_epik_Ionization_Penalty_Charging>
0

> <r_epik_Ionization_Penalty_Neutral>
0.511228

> <r_epik_State_Penalty>
0.51753

> <r_epik_Charging_Adjusted_Penalty>
0.51753

> <i_epik_Tot_Q>
0

> <i_epik_Tot_abs_Q>
0

> <r_epik_Metal_State_Penalty>
0.517012

> <b_epik_Metal_Only>
0

> <s_lp_Force_Field>
OPLS_2005

> <r_lp_Energy>
27.6931

> <b_lp_Chiralities_Consistent>
1

> <s_lp_Variant>
AV-unprocessed.smi:3322-4

> <Gold.Version>
5.8.1

> <Gold.Id.Protein>
6NUR|6NUR_protein|mol2

> <Gold.PLP.Fitness>
41.7454

> <Gold.PLP.PLP>
-39.6393

> <Gold.PLP.part.hbond>
-1.0000

> <Gold.PLP.part.metal>
0.0000

> <Gold.PLP.part.buried>
-5.1604

> <Gold.PLP.part.nonpolar>
-33.3070

> <Gold.PLP.part.repulsive>
0.1257

> <Gold.PLP.ligand.clash>
0.0000

> <Gold.PLP.ligand.torsion>
0.4593

> <Gold.PLP.Chemscore.Hbond>
0.9760

> <Gold.PLP.Chemscore.CHOScore>
0.0000

> <Gold.PLP.Chemscore.Metal>
0.0000

> <Gold.Chemscore.Hbonds>
donor molecule, donor type, donor heavy atom, donor atom, acceptor molecule, acceptor atom, score
      P1  H  7989  7998       L1    12  0.94

> <Gold.PLP.Chemscore.Internal.Correction>
0.0966

> <Gold.Rescore>
     Score         DG    S(hbond)    S(metal)    S(lipo)     H(rot)  DE(clash)    DE(int)     intcor
     14.22     -14.60       0.97        0.00      90.60       1.84       0.03       0.34       ----

> <Gold.Chemscore.Fitness>
14.2210

> <Gold.Chemscore.DG>
-14.5976

> <Gold.Chemscore.ZeroCoef>
-5.4800

> <Gold.Chemscore.Hbond>
0.9695

> <Gold.Chemscore.Metal>
0.0000

> <Gold.Chemscore.Lipo>
90.6040

> <Gold.Chemscore.Internal_Hbond>
0.0000

> <Gold.Chemscore.DEClash>
0.0344

> <Gold.Chemscore.DEInternal>
0.3422

> <Gold.Chemscore.Rot>
1.8442

> <Gold.Chemscore.Internal.Correction>
   9.000000E+99

> <Gold.Chemscore.Hbonds>
donor molecule, donor type, donor heavy atom, donor atom, acceptor molecule, acceptor atom, score
      P1  H  7989  7998       L1    12  0.91

> <Gold.Chemscore.Hbond.Weighted>
-3.2381

> <Gold.Chemscore.Metal.Weighted>
-0.0000

> <Gold.Chemscore.Lipo.Weighted>
-10.6007

> <Gold.Chemscore.Internal_Hbond.Weighted>
0.0000

> <Gold.Chemscore.DEClash.Weighted>
0.0344

> <Gold.Chemscore.DEInternal.Weighted>
0.3422

> <Gold.Chemscore.Rot.Weighted>
4.7212

> <Gold.Chemscore.Internal.Correction.Weighted>
   9.000000E+99

> <Gold.Protein.RotatedTorsions>
[ 6907 6896 6895 6894 ] final  118.42 input  -60.11 | X-H torsion
[ 7974 7965 7964 7962 ] final  -58.19 input  175.53 | X-H torsion
[ 8008 7997 7996 7995 ] final -153.04 input   59.86 | X-H torsion
[ 10167 10162 10161 10158 ] final    0.74 input  -65.29 | X-H torsion
[ 10718 10713 10712 10709 ] final  124.53 input   66.30 | X-H torsion
[ 10763 10752 10751 10750 ] final    1.48 input  -60.55 | X-H torsion
[ 11005 11000 10999 10996 ] final  -15.96 input  -57.11 | X-H torsion

> <Gold.Protein.ActiveResidues>
 VAL166  LYS551  ARG553  GLY616  TRP617  ASP618  TYR619  PRO620  LYS621  CYS622 
 ASP623  PHE694  ASN695  SER759  ASP760  ASP761  ALA762  ILE779  LEU786  VAL792 
 PHE793  MET794  SER795  GLU796  ALA797  LYS798  CYS799  TRP800  GLU811  SER814 

> <Gold.Protein.RotatedAtoms>
  152.4544  133.7694  159.6790 H   0  0  0  0  0  0  0  0  0  0  0  0  # atno 6907 bound_to 6896
  150.8466  133.7842  159.3047 H   0  0  0  0  0  0  0  0  0  0  0  0  # atno 6908 bound_to 6896
  151.5450  135.1071  159.9987 H   0  0  0  0  0  0  0  0  0  0  0  0  # atno 6909 bound_to 6896
  145.8422  140.8409  143.0028 H   0  0  0  0  0  0  0  0  0  0  0  0  # atno 7974 bound_to 7965
  155.6646  140.0726  157.2542 H   0  0  0  0  0  0  0  0  0  0  0  0  # atno 8008 bound_to 7997
  154.4135  140.1710  156.1864 H   0  0  0  0  0  0  0  0  0  0  0  0  # atno 8009 bound_to 7997
  155.9668  140.3365  155.6543 H   0  0  0  0  0  0  0  0  0  0  0  0  # atno 8010 bound_to 7997
  140.6715  143.7036  150.7933 H   0  0  0  0  0  0  0  0  0  0  0  0  # atno 10167 bound_to 10162
  157.5577  131.1091  150.8593 H   0  0  0  0  0  0  0  0  0  0  0  0  # atno 10718 bound_to 10713
  153.3075  135.6960  153.7146 H   0  0  0  0  0  0  0  0  0  0  0  0  # atno 10763 bound_to 10752
  153.6037  135.3457  155.2955 H   0  0  0  0  0  0  0  0  0  0  0  0  # atno 10764 bound_to 10752
  154.8566  135.4346  154.2203 H   0  0  0  0  0  0  0  0  0  0  0  0  # atno 10765 bound_to 10752
  140.8019  133.8207  155.9478 H   0  0  0  0  0  0  0  0  0  0  0  0  # atno 11005 bound_to 11000
  144.6733  140.0829  143.7468 LP  0  0  0  0  0  0  0  0  0  0  0  0  # atno 17320 bound_to 7965
  145.9452  139.2696  143.1245 LP  0  0  0  0  0  0  0  0  0  0  0  0  # atno 17321 bound_to 7965
  140.0722  143.5050  152.2574 LP  0  0  0  0  0  0  0  0  0  0  0  0  # atno 17342 bound_to 10162
  139.5985  144.7575  151.3227 LP  0  0  0  0  0  0  0  0  0  0  0  0  # atno 17343 bound_to 10162
  156.9099  130.5277  149.5280 LP  0  0  0  0  0  0  0  0  0  0  0  0  # atno 17370 bound_to 10713
  156.0634  130.5682  150.9238 LP  0  0  0  0  0  0  0  0  0  0  0  0  # atno 17371 bound_to 10713
  140.9286  134.2051  157.4879 LP  0  0  0  0  0  0  0  0  0  0  0  0  # atno 17394 bound_to 11000
  139.8721  134.9823  156.5151 LP  0  0  0  0  0  0  0  0  0  0  0  0  # atno 17395 bound_to 11000

$$$$
