AV-unprocessed.smi:3117|AV-procd|sdf|11880|dock7
  -GOLD-   2272017263D 1   1.00000     0.00000
 Structure written by MMmdl.
 37 37  0  0  0  0  0  0  0  0  2 V2000
  149.5032  141.9241  157.5769 C   0  0  0  0  0  0  0  0  0  0  0  0
  150.9663  141.4506  157.6493 C   0  0  2  0  0  0  0  0  0  0  0  0
  151.0132  140.0017  157.3528 N   0  3  0  0  0  0  0  0  0  0  0  0
  152.2297  139.5462  156.6457 C   0  0  0  0  0  0  0  0  0  0  0  0
  151.9063  138.9195  155.2727 C   0  0  0  0  0  0  0  0  0  0  0  0
  153.1933  138.7447  154.4493 C   0  0  0  0  0  0  0  0  0  0  0  0
  151.1718  137.5727  155.4079 C   0  0  0  0  0  0  0  0  0  0  0  0
  151.0792  139.8157  154.5557 O   0  0  0  0  0  0  0  0  0  0  0  0
  151.6374  141.7387  159.0181 C   0  0  1  0  0  0  0  0  0  0  0  0
  153.0533  141.1436  159.1291 C   0  0  0  0  0  0  0  0  0  0  0  0
  151.6753  143.1657  159.3136 N   0  0  0  0  0  0  0  0  0  0  0  0
  152.2583  144.1848  158.5863 C   0  0  0  0  0  0  0  0  0  0  0  0
  152.0203  145.3515  159.2543 C   0  0  0  0  0  0  0  0  0  0  0  0
  151.2705  144.9424  160.3920 C   0  0  0  0  0  0  0  0  0  0  0  0
  151.0645  143.6357  160.4235 N   0  0  0  0  0  0  0  0  0  0  0  0
  149.4197  143.0057  157.6856 H   0  0  0  0  0  0  0  0  0  0  0  0
  148.8983  141.4639  158.3591 H   0  0  0  0  0  0  0  0  0  0  0  0
  149.0563  141.6659  156.6164 H   0  0  0  0  0  0  0  0  0  0  0  0
  151.5144  141.9925  156.8763 H   0  0  0  0  0  0  0  0  0  0  0  0
  150.9374  139.4954  158.2233 H   0  0  0  0  0  0  0  0  0  0  0  0
  152.9009  140.3979  156.5247 H   0  0  0  0  0  0  0  0  0  0  0  0
  152.7527  138.8175  157.2664 H   0  0  0  0  0  0  0  0  0  0  0  0
  153.8877  138.0637  154.9430 H   0  0  0  0  0  0  0  0  0  0  0  0
  153.7099  139.6953  154.3092 H   0  0  0  0  0  0  0  0  0  0  0  0
  152.9825  138.3372  153.4597 H   0  0  0  0  0  0  0  0  0  0  0  0
  151.7709  136.8537  155.9677 H   0  0  0  0  0  0  0  0  0  0  0  0
  150.9630  137.1348  154.4310 H   0  0  0  0  0  0  0  0  0  0  0  0
  150.2179  137.6790  155.9253 H   0  0  0  0  0  0  0  0  0  0  0  0
  150.6485  140.3887  155.1725 H   0  0  0  0  0  0  0  0  0  0  0  0
  151.0285  141.2660  159.7918 H   0  0  0  0  0  0  0  0  0  0  0  0
  153.0383  140.0567  159.0480 H   0  0  0  0  0  0  0  0  0  0  0  0
  153.5042  141.3867  160.0918 H   0  0  0  0  0  0  0  0  0  0  0  0
  153.7115  141.5257  158.3482 H   0  0  0  0  0  0  0  0  0  0  0  0
  152.7880  143.9976  157.6639 H   0  0  0  0  0  0  0  0  0  0  0  0
  152.3330  146.3460  158.9723 H   0  0  0  0  0  0  0  0  0  0  0  0
  150.8716  145.5515  161.1898 H   0  0  0  0  0  0  0  0  0  0  0  0
  150.2162  139.7651  156.7789 H   0  0  0  0  0  0  0  0  0  0  0  0
  1  2  1  0  0  0  0
  1 16  1  0  0  0  0
  1 17  1  0  0  0  0
  1 18  1  0  0  0  0
  2  3  1  0  0  0  0
  2  9  1  0  0  0  0
  2 19  1  0  0  0  0
  3  4  1  0  0  0  0
  3 20  1  0  0  0  0
  3 37  1  0  0  0  0
  4  5  1  0  0  0  0
  4 21  1  0  0  0  0
  4 22  1  0  0  0  0
  5  6  1  0  0  0  0
  5  7  1  0  0  0  0
  5  8  1  0  0  0  0
  6 23  1  0  0  0  0
  6 24  1  0  0  0  0
  6 25  1  0  0  0  0
  7 26  1  0  0  0  0
  7 27  1  0  0  0  0
  7 28  1  0  0  0  0
  8 29  1  0  0  0  0
  9 10  1  0  0  0  0
  9 11  1  0  0  0  0
  9 30  1  0  0  0  0
 10 31  1  0  0  0  0
 10 32  1  0  0  0  0
 10 33  1  0  0  0  0
 11 15  1  0  0  0  0
 11 12  1  0  0  0  0
 12 13  2  0  0  0  0
 12 34  1  0  0  0  0
 13 14  1  0  0  0  0
 13 35  1  0  0  0  0
 14 15  2  0  0  0  0
 14 36  1  0  0  0  0
M  CHG  1   3   1
M  END
> <s_m_source_file>
AV-unprocessed.smi

> <i_m_source_file_index>
3117

> <i_lp_mmshare_version>
43012

> <i_f3d_flags>
0

> <s_epik_input>
W0NIM11DKFtDSDNdKShbT0hdKVtDSDJdW05IXVtDQEBIXShbQ0gzXSlbQ0BIXShbQ0gzXSluMVtjSF1bY0hdW2NIXW4x

> <s_epik_cmdline>
J2VwaWtfcHl0aG9uJywgJy1waCcsICc3LjAnLCAnLXRuJywgJzgnLCAnLW1hJywgJzIwMCcsICctbWV0YWxfYmluZGluZycsICctaW1hZScsICc8aW5maWxlLm1hZT4nLCAnLW9tYWUnLCAnPG91dGZpbGUubWFlPic=

> <r_lp_tautomer_probability>
1

> <r_epik_Ionization_Penalty>
0.0164263

> <r_epik_Ionization_Penalty_Charging>
0.0164138

> <r_epik_Ionization_Penalty_Neutral>
1.24697e-05

> <r_epik_State_Penalty>
0.0129543

> <r_epik_Charging_Adjusted_Penalty>
0.0293681

> <i_epik_Tot_Q>
1

> <i_epik_Tot_abs_Q>
1

> <r_epik_Metal_State_Penalty>
0.0129806

> <b_epik_Metal_Only>
0

> <s_lp_Force_Field>
OPLS_2005

> <r_lp_Energy>
14.6887

> <b_lp_Chiralities_Consistent>
1

> <s_lp_Variant>
AV-unprocessed.smi:3117-3

> <Gold.Version>
5.8.1

> <Gold.Id.Protein>
6NUR|6NUR_protein|mol2

> <Gold.PLP.Fitness>
37.2192

> <Gold.PLP.PLP>
-35.9913

> <Gold.PLP.part.hbond>
-1.3484

> <Gold.PLP.part.metal>
0.0000

> <Gold.PLP.part.buried>
-5.2901

> <Gold.PLP.part.nonpolar>
-28.3526

> <Gold.PLP.part.repulsive>
0.1259

> <Gold.PLP.ligand.clash>
0.0000

> <Gold.PLP.ligand.torsion>
0.9242

> <Gold.PLP.Chemscore.Hbond>
1.0000

> <Gold.PLP.Chemscore.CHOScore>
0.0000

> <Gold.PLP.Chemscore.Metal>
0.0000

> <Gold.Chemscore.Hbonds>
donor molecule, donor type, donor heavy atom, donor atom, acceptor molecule, acceptor atom, score
      P1  H  7989  7998       L1     8  1.00

> <Gold.PLP.Chemscore.Internal.Correction>
0.0763

> <Gold.Rescore>
     Score         DG    S(hbond)    S(metal)    S(lipo)     H(rot)  DE(clash)    DE(int)     intcor
     13.07     -13.97       0.92        0.00      96.10       2.27       0.00       0.90       ----

> <Gold.Chemscore.Fitness>
13.0683

> <Gold.Chemscore.DG>
-13.9701

> <Gold.Chemscore.ZeroCoef>
-5.4800

> <Gold.Chemscore.Hbond>
0.9173

> <Gold.Chemscore.Metal>
0.0000

> <Gold.Chemscore.Lipo>
96.1005

> <Gold.Chemscore.Internal_Hbond>
0.0000

> <Gold.Chemscore.DEClash>
0.0034

> <Gold.Chemscore.DEInternal>
0.8985

> <Gold.Chemscore.Rot>
2.2725

> <Gold.Chemscore.Internal.Correction>
   9.000000E+99

> <Gold.Chemscore.Hbonds>
donor molecule, donor type, donor heavy atom, donor atom, acceptor molecule, acceptor atom, score
      P1  H  7989  7998       L1     8  0.29

> <Gold.Chemscore.Hbond.Weighted>
-3.0639

> <Gold.Chemscore.Metal.Weighted>
-0.0000

> <Gold.Chemscore.Lipo.Weighted>
-11.2438

> <Gold.Chemscore.Internal_Hbond.Weighted>
0.0000

> <Gold.Chemscore.DEClash.Weighted>
0.0034

> <Gold.Chemscore.DEInternal.Weighted>
0.8985

> <Gold.Chemscore.Rot.Weighted>
5.8176

> <Gold.Chemscore.Internal.Correction.Weighted>
   9.000000E+99

> <Gold.Protein.RotatedTorsions>
[ 6907 6896 6895 6894 ] final -135.85 input  -60.11 | X-H torsion
[ 7974 7965 7964 7962 ] final  -76.07 input  175.53 | X-H torsion
[ 8008 7997 7996 7995 ] final -169.82 input   59.86 | X-H torsion
[ 10167 10162 10161 10158 ] final  -22.53 input  -65.29 | X-H torsion
[ 10718 10713 10712 10709 ] final -127.81 input   66.30 | X-H torsion
[ 10763 10752 10751 10750 ] final -106.76 input  -60.55 | X-H torsion
[ 11005 11000 10999 10996 ] final  -50.01 input  -57.11 | X-H torsion

> <Gold.Protein.ActiveResidues>
 VAL166  LYS551  ARG553  GLY616  TRP617  ASP618  TYR619  PRO620  LYS621  CYS622 
 ASP623  PHE694  ASN695  SER759  ASP760  ASP761  ALA762  ILE779  LEU786  VAL792 
 PHE793  MET794  SER795  GLU796  ALA797  LYS798  CYS799  TRP800  GLU811  SER814 

> <Gold.Protein.RotatedAtoms>
  151.0029  133.6039  159.2692 H   0  0  0  0  0  0  0  0  0  0  0  0  # atno 6907 bound_to 6896
  151.3218  135.0819  159.9318 H   0  0  0  0  0  0  0  0  0  0  0  0  # atno 6908 bound_to 6896
  152.5279  133.9675  159.7800 H   0  0  0  0  0  0  0  0  0  0  0  0  # atno 6909 bound_to 6896
  145.6177  140.9371  143.1155 H   0  0  0  0  0  0  0  0  0  0  0  0  # atno 7974 bound_to 7965
  155.9101  140.1056  157.1286 H   0  0  0  0  0  0  0  0  0  0  0  0  # atno 8008 bound_to 7997
  154.4038  140.1276  156.4611 H   0  0  0  0  0  0  0  0  0  0  0  0  # atno 8009 bound_to 7997
  155.7320  140.3468  155.5066 H   0  0  0  0  0  0  0  0  0  0  0  0  # atno 8010 bound_to 7997
  140.7286  143.4526  151.0494 H   0  0  0  0  0  0  0  0  0  0  0  0  # atno 10167 bound_to 10162
  156.1891  130.6783  151.0402 H   0  0  0  0  0  0  0  0  0  0  0  0  # atno 10718 bound_to 10713
  154.8033  135.4700  154.0328 H   0  0  0  0  0  0  0  0  0  0  0  0  # atno 10763 bound_to 10752
  153.1817  135.6841  153.8476 H   0  0  0  0  0  0  0  0  0  0  0  0  # atno 10764 bound_to 10752
  153.8024  135.3228  155.3369 H   0  0  0  0  0  0  0  0  0  0  0  0  # atno 10765 bound_to 10752
  141.0792  133.6658  156.3669 H   0  0  0  0  0  0  0  0  0  0  0  0  # atno 11005 bound_to 11000
  144.7244  139.7925  143.7370 LP  0  0  0  0  0  0  0  0  0  0  0  0  # atno 17320 bound_to 7965
  146.1455  139.4524  143.0081 LP  0  0  0  0  0  0  0  0  0  0  0  0  # atno 17321 bound_to 7965
  139.8204  143.7828  152.3176 LP  0  0  0  0  0  0  0  0  0  0  0  0  # atno 17342 bound_to 10162
  139.7909  144.7410  150.9957 LP  0  0  0  0  0  0  0  0  0  0  0  0  # atno 17343 bound_to 10162
  157.6918  131.0807  150.7086 LP  0  0  0  0  0  0  0  0  0  0  0  0  # atno 17370 bound_to 10713
  156.7142  130.4661  149.5539 LP  0  0  0  0  0  0  0  0  0  0  0  0  # atno 17371 bound_to 10713
  140.5506  134.6031  157.5406 LP  0  0  0  0  0  0  0  0  0  0  0  0  # atno 17394 bound_to 11000
  139.9605  134.7461  156.0248 LP  0  0  0  0  0  0  0  0  0  0  0  0  # atno 17395 bound_to 11000

$$$$
