AV-unprocessed.smi:102|AV-procd|sdf|968|dock5
  -GOLD-   2262017513D 1   1.00000     0.00000
 Structure written by MMmdl.
 43 44  0  0  0  0  0  0  0  0  2 V2000
  150.5910  138.0496  154.8523 C   0  0  0  0  0  0  0  0  0  0  0  0
  150.9334  139.2265  155.7571 C   0  0  0  0  0  0  0  0  0  0  0  0
  151.9492  139.8984  155.5774 O   0  0  0  0  0  0  0  0  0  0  0  0
  150.0224  139.4167  156.7239 O   0  0  0  0  0  0  0  0  0  0  0  0
  150.1918  140.4809  157.6454 C   0  0  0  0  0  0  0  0  0  0  0  0
  149.7206  141.7980  156.9979 C   0  0  1  0  0  0  0  0  0  0  0  0
  148.5161  141.5539  156.2833 O   0  0  0  0  0  0  0  0  0  0  0  0
  147.4257  141.6630  157.1495 C   0  0  2  0  0  0  0  0  0  0  0  0
  146.2708  142.2860  156.3951 N   0  0  0  0  0  0  0  0  0  0  0  0
  146.4325  142.6978  155.0835 C   0  0  0  0  0  0  0  0  0  0  0  0
  145.4228  143.2801  154.4051 C   0  0  0  0  0  0  0  0  0  0  0  0
  145.6101  143.6723  153.1332 F   0  0  0  0  0  0  0  0  0  0  0  0
  144.1339  143.4862  155.0632 C   0  0  0  0  0  0  0  0  0  0  0  0
  143.2136  144.0094  154.4367 O   0  0  0  0  0  0  0  0  0  0  0  0
  144.0095  143.0864  156.3623 N   0  5  0  0  0  0  0  0  0  0  0  0
  145.0320  142.5058  157.0564 C   0  0  0  0  0  0  0  0  0  0  0  0
  144.9391  142.1720  158.2377 O   0  0  0  0  0  0  0  0  0  0  0  0
  147.8724  142.5006  158.3681 C   0  0  2  0  0  0  0  0  0  0  0  0
  147.0714  143.6644  158.5513 O   0  0  0  0  0  0  0  0  0  0  0  0
  146.5514  143.9500  159.7548 C   0  0  0  0  0  0  0  0  0  0  0  0
  146.0657  145.3900  159.8455 C   0  0  0  0  0  0  0  0  0  0  0  0
  146.4594  143.1773  160.7090 O   0  0  0  0  0  0  0  0  0  0  0  0
  149.2984  142.8827  157.9975 C   0  0  1  0  0  0  0  0  0  0  0  0
  150.1185  142.9282  159.1586 O   0  0  0  0  0  0  0  0  0  0  0  0
  151.3326  143.5000  159.1072 C   0  0  0  0  0  0  0  0  0  0  0  0
  152.1003  143.3460  160.4130 C   0  0  0  0  0  0  0  0  0  0  0  0
  151.8177  144.0869  158.1400 O   0  0  0  0  0  0  0  0  0  0  0  0
  149.5482  137.7551  154.9742 H   0  0  0  0  0  0  0  0  0  0  0  0
  151.2226  137.1945  155.0924 H   0  0  0  0  0  0  0  0  0  0  0  0
  150.7531  138.3168  153.8080 H   0  0  0  0  0  0  0  0  0  0  0  0
  149.6477  140.2776  158.5687 H   0  0  0  0  0  0  0  0  0  0  0  0
  151.2505  140.5481  157.8998 H   0  0  0  0  0  0  0  0  0  0  0  0
  150.4934  142.1774  156.3284 H   0  0  0  0  0  0  0  0  0  0  0  0
  147.1147  140.6537  157.4229 H   0  0  0  0  0  0  0  0  0  0  0  0
  147.3836  142.5623  154.5906 H   0  0  0  0  0  0  0  0  0  0  0  0
  147.8497  141.8441  159.2397 H   0  0  0  0  0  0  0  0  0  0  0  0
  145.4076  145.6210  159.0075 H   0  0  0  0  0  0  0  0  0  0  0  0
  146.9123  146.0761  159.8210 H   0  0  0  0  0  0  0  0  0  0  0  0
  145.5146  145.5514  160.7720 H   0  0  0  0  0  0  0  0  0  0  0  0
  149.2785  143.8478  157.4877 H   0  0  0  0  0  0  0  0  0  0  0  0
  151.5282  143.7666  161.2400 H   0  0  0  0  0  0  0  0  0  0  0  0
  153.0587  143.8626  160.3578 H   0  0  0  0  0  0  0  0  0  0  0  0
  152.2866  142.2922  160.6203 H   0  0  0  0  0  0  0  0  0  0  0  0
  1  2  1  0  0  0  0
  1 28  1  0  0  0  0
  1 29  1  0  0  0  0
  1 30  1  0  0  0  0
  2  3  2  0  0  0  0
  2  4  1  0  0  0  0
  4  5  1  0  0  0  0
  5  6  1  0  0  0  0
  5 31  1  0  0  0  0
  5 32  1  0  0  0  0
  6 23  1  0  0  0  0
  6  7  1  0  0  0  0
  6 33  1  0  0  0  0
  7  8  1  0  0  0  0
  8  9  1  0  0  0  0
  8 18  1  0  0  0  0
  8 34  1  0  0  0  0
  9 16  1  0  0  0  0
  9 10  1  0  0  0  0
 10 11  2  0  0  0  0
 10 35  1  0  0  0  0
 11 12  1  0  0  0  0
 11 13  1  0  0  0  0
 13 14  2  0  0  0  0
 13 15  1  0  0  0  0
 15 16  1  0  0  0  0
 16 17  2  0  0  0  0
 18 19  1  0  0  0  0
 18 23  1  0  0  0  0
 18 36  1  0  0  0  0
 19 20  1  0  0  0  0
 20 21  1  0  0  0  0
 20 22  2  0  0  0  0
 21 37  1  0  0  0  0
 21 38  1  0  0  0  0
 21 39  1  0  0  0  0
 23 24  1  0  0  0  0
 23 40  1  0  0  0  0
 24 25  1  0  0  0  0
 25 26  1  0  0  0  0
 25 27  2  0  0  0  0
 26 41  1  0  0  0  0
 26 42  1  0  0  0  0
 26 43  1  0  0  0  0
M  CHG  1  15  -1
M  END
> <s_m_source_file>
AV-unprocessed.smi

> <i_m_source_file_index>
102

> <i_lp_mmshare_version>
43012

> <i_f3d_flags>
0

> <s_epik_input>
W0NIM11DKD1PKU9bQ0gyXVtDQEBIXTFPW0NASF0oW0NAQEhdKE9DKD1PKVtDSDNdKVtDQEhdMU9DKD1PKVtDSDNdKW4yW2NIXWMoRiljKD1PKVtuSF1jMj1P

> <s_epik_cmdline>
J2VwaWtfcHl0aG9uJywgJy1waCcsICc3LjAnLCAnLXRuJywgJzgnLCAnLW1hJywgJzIwMCcsICctbWV0YWxfYmluZGluZycsICctaW1hZScsICc8aW5maWxlLm1hZT4nLCAnLW9tYWUnLCAnPG91dGZpbGUubWFlPic=

> <r_epik_Ionization_Penalty>
1.40304

> <r_epik_Ionization_Penalty_Charging>
1.43915e-08

> <r_epik_Ionization_Penalty_Neutral>
1.40304

> <r_epik_State_Penalty>
1.48536

> <r_epik_Charging_Adjusted_Penalty>
1.48536

> <i_epik_Tot_Q>
-1

> <i_epik_Tot_abs_Q>
1

> <r_epik_Metal_State_Penalty>
0.00663881

> <b_epik_Metal_Only>
0

> <s_epik_Chemistry_Notes>
This compound has an ester and may undergo hydrolysis at high or low pH. This compound contains an acetal/aminal-like group ( X-CH(R)-Y where X, Y are N, S, or O) that may be acid/base labile, releasing an aldehyde.

> <s_lp_Force_Field>
OPLS_2005

> <r_lp_Energy>
24.6661

> <b_lp_Chiralities_Consistent>
1

> <s_lp_Variant>
AV-unprocessed.smi:102-24

> <Gold.Version>
5.8.1

> <Gold.Id.Protein>
6NUR|6NUR_protein|mol2

> <Gold.PLP.Fitness>
41.8377

> <Gold.PLP.PLP>
-35.4387

> <Gold.PLP.part.hbond>
-4.0000

> <Gold.PLP.part.metal>
0.0000

> <Gold.PLP.part.buried>
-6.4387

> <Gold.PLP.part.nonpolar>
-26.7420

> <Gold.PLP.part.repulsive>
1.7343

> <Gold.PLP.ligand.clash>
0.0000

> <Gold.PLP.ligand.torsion>
1.3715

> <Gold.PLP.Chemscore.Hbond>
2.5600

> <Gold.PLP.Chemscore.CHOScore>
0.4297

> <Gold.PLP.Chemscore.Metal>
0.0000

> <Gold.Chemscore.Hbonds>
donor molecule, donor type, donor heavy atom, donor atom, acceptor molecule, acceptor atom, score
      P1  H  6933  6944       L1    22  0.31
      P1  H  6934  6946       L1    22  0.19
      P1  H  7989  7998       L1     3  0.28
      L1  C    10    35       P1  8028  0.14

> <Gold.PLP.Chemscore.Internal.Correction>
0.1728

> <Gold.Rescore>
     Score         DG    S(hbond)    S(metal)    S(lipo)     H(rot)  DE(clash)    DE(int)     intcor
      4.60      -9.45       2.62        0.00      46.51       4.00       0.76       4.09       ----

> <Gold.Chemscore.Fitness>
4.5971

> <Gold.Chemscore.DG>
-9.4501

> <Gold.Chemscore.ZeroCoef>
-5.4800

> <Gold.Chemscore.Hbond>
2.6217

> <Gold.Chemscore.Metal>
0.0000

> <Gold.Chemscore.Lipo>
46.5060

> <Gold.Chemscore.Internal_Hbond>
0.0000

> <Gold.Chemscore.DEClash>
0.7611

> <Gold.Chemscore.DEInternal>
4.0919

> <Gold.Chemscore.Rot>
3.9951

> <Gold.Chemscore.Internal.Correction>
   9.000000E+99

> <Gold.Chemscore.Hbonds>
donor molecule, donor type, donor heavy atom, donor atom, acceptor molecule, acceptor atom, score
      P1  H  6933  6944       L1    22  0.26
      P1  H  6934  6946       L1    22  0.20
      P1  H  7989  7998       L1     3  0.13
      P1  H  7997  8008       L1     3  0.02

> <Gold.Chemscore.Hbond.Weighted>
-8.7563

> <Gold.Chemscore.Metal.Weighted>
-0.0000

> <Gold.Chemscore.Lipo.Weighted>
-5.4412

> <Gold.Chemscore.Internal_Hbond.Weighted>
0.0000

> <Gold.Chemscore.DEClash.Weighted>
0.7611

> <Gold.Chemscore.DEInternal.Weighted>
4.0919

> <Gold.Chemscore.Rot.Weighted>
10.2274

> <Gold.Chemscore.Internal.Correction.Weighted>
   9.000000E+99

> <Gold.Protein.RotatedTorsions>
[ 6907 6896 6895 6894 ] final   -8.73 input  -60.11 | X-H torsion
[ 7974 7965 7964 7962 ] final  -34.51 input  175.53 | X-H torsion
[ 8008 7997 7996 7995 ] final  -28.32 input   59.86 | X-H torsion
[ 10167 10162 10161 10158 ] final   51.79 input  -65.29 | X-H torsion
[ 10718 10713 10712 10709 ] final  -31.30 input   66.30 | X-H torsion
[ 10763 10752 10751 10750 ] final  134.28 input  -60.55 | X-H torsion
[ 11005 11000 10999 10996 ] final -102.94 input  -57.11 | X-H torsion

> <Gold.Protein.ActiveResidues>
 VAL166  LYS551  ARG553  GLY616  TRP617  ASP618  TYR619  PRO620  LYS621  CYS622 
 ASP623  PHE694  ASN695  SER759  ASP760  ASP761  ALA762  ILE779  LEU786  VAL792 
 PHE793  MET794  SER795  GLU796  ALA797  LYS798  CYS799  TRP800  GLU811  SER814 

> <Gold.Protein.RotatedAtoms>
  151.4290  135.1007  159.9636 H   0  0  0  0  0  0  0  0  0  0  0  0  # atno 6907 bound_to 6896
  152.4963  133.8636  159.7273 H   0  0  0  0  0  0  0  0  0  0  0  0  # atno 6908 bound_to 6896
  150.9169  133.6870  159.2869 H   0  0  0  0  0  0  0  0  0  0  0  0  # atno 6909 bound_to 6896
  146.0823  140.6047  142.8902 H   0  0  0  0  0  0  0  0  0  0  0  0  # atno 7974 bound_to 7965
  154.4337  140.1848  156.1072 H   0  0  0  0  0  0  0  0  0  0  0  0  # atno 8008 bound_to 7997
  156.0246  140.3337  155.7049 H   0  0  0  0  0  0  0  0  0  0  0  0  # atno 8009 bound_to 7997
  155.5927  140.0632  157.2745 H   0  0  0  0  0  0  0  0  0  0  0  0  # atno 8010 bound_to 7997
  140.2582  144.3403  150.6326 H   0  0  0  0  0  0  0  0  0  0  0  0  # atno 10167 bound_to 10162
  156.3890  130.4369  149.7409 H   0  0  0  0  0  0  0  0  0  0  0  0  # atno 10718 bound_to 10713
  153.8210  135.3116  155.3410 H   0  0  0  0  0  0  0  0  0  0  0  0  # atno 10763 bound_to 10752
  154.8012  135.4725  154.0284 H   0  0  0  0  0  0  0  0  0  0  0  0  # atno 10764 bound_to 10752
  153.1693  135.6875  153.8720 H   0  0  0  0  0  0  0  0  0  0  0  0  # atno 10765 bound_to 10752
  141.1168  133.8599  157.1423 H   0  0  0  0  0  0  0  0  0  0  0  0  # atno 11005 bound_to 11000
  144.7302  140.4648  143.6943 LP  0  0  0  0  0  0  0  0  0  0  0  0  # atno 17320 bound_to 7965
  145.6194  139.1522  143.3031 LP  0  0  0  0  0  0  0  0  0  0  0  0  # atno 17321 bound_to 7965
  140.5987  143.2167  151.7114 LP  0  0  0  0  0  0  0  0  0  0  0  0  # atno 17342 bound_to 10162
  139.5025  144.3827  152.0360 LP  0  0  0  0  0  0  0  0  0  0  0  0  # atno 17343 bound_to 10162
  156.4470  130.7888  151.2910 LP  0  0  0  0  0  0  0  0  0  0  0  0  # atno 17370 bound_to 10713
  157.7498  131.0107  150.3317 LP  0  0  0  0  0  0  0  0  0  0  0  0  # atno 17371 bound_to 10713
  140.0095  134.9994  157.0365 LP  0  0  0  0  0  0  0  0  0  0  0  0  # atno 17394 bound_to 11000
  140.4624  134.1470  155.7193 LP  0  0  0  0  0  0  0  0  0  0  0  0  # atno 17395 bound_to 11000

$$$$
