AV-unprocessed.smi:2124|AV-procd|sdf|8666|dock3
  -GOLD-   2272011413D 1   1.00000     0.00000
 Structure written by MMmdl.
 46 48  0  0  0  0  0  0  0  0  2 V2000
  143.6050  140.1225  157.0472 C   0  0  0  0  0  0  0  0  0  0  0  0
  144.8848  140.5130  156.3393 C   0  0  0  0  0  0  0  0  0  0  0  0
  144.9101  141.5818  155.6384 N   0  0  0  0  0  0  0  0  0  0  0  0
  146.0983  141.9533  154.9865 C   0  0  0  0  0  0  0  0  0  0  0  0
  146.0365  143.2418  154.1853 C   0  0  0  0  0  0  0  0  0  0  0  0
  147.2257  141.1916  155.0845 C   0  0  0  0  0  0  0  0  0  0  0  0
  148.5442  141.5568  154.4035 C   0  0  0  0  0  0  0  0  0  0  0  0
  149.8061  141.2703  155.2196 C   0  0  0  0  0  0  0  0  0  0  0  0
  150.5800  140.3805  154.8673 O   0  0  0  0  0  0  0  0  0  0  0  0
  150.0003  142.0313  156.3082 N   0  0  0  0  0  0  0  0  0  0  0  0
  151.1344  141.9350  157.2246 C   0  0  2  0  0  0  0  0  0  0  0  0
  151.4675  140.4546  157.4792 C   0  0  0  0  0  0  0  0  0  0  0  0
  150.8010  142.6962  158.5289 C   0  0  2  0  0  0  0  0  0  0  0  0
  150.1957  144.1041  158.3222 C   0  0  0  0  0  0  0  0  0  0  0  0
  151.0413  144.9866  159.2591 C   0  0  2  0  0  0  0  0  0  0  0  0
  152.4324  145.1914  158.6324 C   0  0  0  0  0  0  0  0  0  0  0  0
  153.0914  143.8125  158.8171 C   0  0  0  0  0  0  0  0  0  0  0  0
  151.9771  142.9873  159.4944 C   0  0  1  0  0  0  0  0  0  0  0  0
  151.3507  144.0351  160.4090 C   0  0  0  0  0  0  0  0  0  0  0  0
  147.1521  139.9633  155.8967 C   0  0  0  0  0  0  0  0  0  0  0  0
  148.1360  139.2334  156.0109 O   0  0  0  0  0  0  0  0  0  0  0  0
  145.9649  139.6754  156.5029 N   0  5  0  0  0  0  0  0  0  0  0  0
  142.7785  140.7703  156.7515 H   0  0  0  0  0  0  0  0  0  0  0  0
  143.7334  140.2023  158.1267 H   0  0  0  0  0  0  0  0  0  0  0  0
  143.3350  139.0940  156.8052 H   0  0  0  0  0  0  0  0  0  0  0  0
  146.7508  143.9692  154.5711 H   0  0  0  0  0  0  0  0  0  0  0  0
  145.0436  143.6901  154.2353 H   0  0  0  0  0  0  0  0  0  0  0  0
  146.2634  143.0517  153.1371 H   0  0  0  0  0  0  0  0  0  0  0  0
  148.6014  141.0237  153.4539 H   0  0  0  0  0  0  0  0  0  0  0  0
  148.5544  142.6100  154.1212 H   0  0  0  0  0  0  0  0  0  0  0  0
  149.3107  142.7393  156.5140 H   0  0  0  0  0  0  0  0  0  0  0  0
  151.9948  142.4083  156.7502 H   0  0  0  0  0  0  0  0  0  0  0  0
  152.3427  140.3490  158.1198 H   0  0  0  0  0  0  0  0  0  0  0  0
  151.6870  139.9335  156.5470 H   0  0  0  0  0  0  0  0  0  0  0  0
  150.6370  139.9380  157.9614 H   0  0  0  0  0  0  0  0  0  0  0  0
  150.0731  142.0976  159.0802 H   0  0  0  0  0  0  0  0  0  0  0  0
  150.2559  144.4469  157.2884 H   0  0  0  0  0  0  0  0  0  0  0  0
  149.1443  144.1145  158.6124 H   0  0  0  0  0  0  0  0  0  0  0  0
  150.5503  145.9169  159.5462 H   0  0  0  0  0  0  0  0  0  0  0  0
  152.3752  145.4884  157.5847 H   0  0  0  0  0  0  0  0  0  0  0  0
  152.9931  145.9591  159.1673 H   0  0  0  0  0  0  0  0  0  0  0  0
  153.4447  143.3825  157.8808 H   0  0  0  0  0  0  0  0  0  0  0  0
  153.9552  143.8955  159.4781 H   0  0  0  0  0  0  0  0  0  0  0  0
  152.3451  142.1021  160.0139 H   0  0  0  0  0  0  0  0  0  0  0  0
  152.0497  144.4490  161.1379 H   0  0  0  0  0  0  0  0  0  0  0  0
  150.4591  143.6818  160.9300 H   0  0  0  0  0  0  0  0  0  0  0  0
  1  2  1  0  0  0  0
  1 23  1  0  0  0  0
  1 24  1  0  0  0  0
  1 25  1  0  0  0  0
  2 22  1  0  0  0  0
  2  3  2  0  0  0  0
  3  4  1  0  0  0  0
  4  5  1  0  0  0  0
  4  6  2  0  0  0  0
  5 26  1  0  0  0  0
  5 27  1  0  0  0  0
  5 28  1  0  0  0  0
  6  7  1  0  0  0  0
  6 20  1  0  0  0  0
  7  8  1  0  0  0  0
  7 29  1  0  0  0  0
  7 30  1  0  0  0  0
  8  9  2  0  0  0  0
  8 10  1  0  0  0  0
 10 11  1  0  0  0  0
 10 31  1  0  0  0  0
 11 12  1  0  0  0  0
 11 13  1  0  0  0  0
 11 32  1  0  0  0  0
 12 33  1  0  0  0  0
 12 34  1  0  0  0  0
 12 35  1  0  0  0  0
 13 18  1  0  0  0  0
 13 14  1  0  0  0  0
 13 36  1  0  0  0  0
 14 15  1  0  0  0  0
 14 37  1  0  0  0  0
 14 38  1  0  0  0  0
 15 19  1  0  0  0  0
 15 16  1  0  0  0  0
 15 39  1  0  0  0  0
 16 17  1  0  0  0  0
 16 40  1  0  0  0  0
 16 41  1  0  0  0  0
 17 18  1  0  0  0  0
 17 42  1  0  0  0  0
 17 43  1  0  0  0  0
 18 19  1  0  0  0  0
 18 44  1  0  0  0  0
 19 45  1  0  0  0  0
 19 46  1  0  0  0  0
 20 21  2  0  0  0  0
 20 22  1  0  0  0  0
M  CHG  1  22  -1
M  END
> <s_m_source_file>
AV-unprocessed.smi

> <i_m_source_file_index>
2124

> <i_lp_mmshare_version>
43012

> <i_f3d_flags>
0

> <s_epik_input>
W0NIM11jMW5jKFtDSDNdKWMoYyg9TylbbkhdMSlbQ0gyXUMoPU8pW05IXVtDQEhdKFtDSDNdKVtDQEhdKFtDSDJdW0NASF0yMylbQ0BIXShbQ0gyXTMpW0NIMl1bQ0gyXTI=

> <s_epik_cmdline>
J2VwaWtfcHl0aG9uJywgJy1waCcsICc3LjAnLCAnLXRuJywgJzgnLCAnLW1hJywgJzIwMCcsICctbWV0YWxfYmluZGluZycsICctaW1hZScsICc8aW5maWxlLm1hZT4nLCAnLW9tYWUnLCAnPG91dGZpbGUubWFlPic=

> <r_lp_tautomer_probability>
0.839158

> <r_epik_Ionization_Penalty>
6.63797

> <r_epik_Ionization_Penalty_Charging>
7.48558e-08

> <r_epik_Ionization_Penalty_Neutral>
6.63797

> <r_epik_State_Penalty>
4.49496

> <r_epik_Charging_Adjusted_Penalty>
4.49496

> <i_epik_Tot_Q>
-1

> <i_epik_Tot_abs_Q>
1

> <r_epik_Metal_State_Penalty>
0.841241

> <b_epik_Metal_Only>
1

> <s_lp_Force_Field>
OPLS_2005

> <r_lp_Energy>
56.0848

> <b_lp_Chiralities_Consistent>
1

> <s_lp_Variant>
AV-unprocessed.smi:2124-17

> <Gold.Version>
5.8.1

> <Gold.Id.Protein>
6NUR|6NUR_protein|mol2

> <Gold.PLP.Fitness>
42.5273

> <Gold.PLP.PLP>
-39.3883

> <Gold.PLP.part.hbond>
-2.0000

> <Gold.PLP.part.metal>
0.0000

> <Gold.PLP.part.buried>
-1.9553

> <Gold.PLP.part.nonpolar>
-33.7639

> <Gold.PLP.part.repulsive>
0.3164

> <Gold.PLP.ligand.clash>
0.0000

> <Gold.PLP.ligand.torsion>
0.7550

> <Gold.PLP.Chemscore.Hbond>
1.5382

> <Gold.PLP.Chemscore.CHOScore>
0.0000

> <Gold.PLP.Chemscore.Metal>
0.0000

> <Gold.Chemscore.Hbonds>
donor molecule, donor type, donor heavy atom, donor atom, acceptor molecule, acceptor atom, score
      L1  H    10    31       P1  8028  0.39
      P1  H  7989  7998       L1     9  1.00

> <Gold.PLP.Chemscore.Internal.Correction>
0.0344

> <Gold.Rescore>
     Score         DG    S(hbond)    S(metal)    S(lipo)     H(rot)  DE(clash)    DE(int)     intcor
     14.45     -19.33       1.42        0.00     113.07       1.61       0.19       4.69       ----

> <Gold.Chemscore.Fitness>
14.4493

> <Gold.Chemscore.DG>
-19.3284

> <Gold.Chemscore.ZeroCoef>
-5.4800

> <Gold.Chemscore.Hbond>
1.4155

> <Gold.Chemscore.Metal>
0.0000

> <Gold.Chemscore.Lipo>
113.0740

> <Gold.Chemscore.Internal_Hbond>
0.0000

> <Gold.Chemscore.DEClash>
0.1941

> <Gold.Chemscore.DEInternal>
4.6850

> <Gold.Chemscore.Rot>
1.6051

> <Gold.Chemscore.Internal.Correction>
   9.000000E+99

> <Gold.Chemscore.Hbonds>
donor molecule, donor type, donor heavy atom, donor atom, acceptor molecule, acceptor atom, score
      L1  H    10    31       P1  8028  0.40
      P1  H  7989  7998       L1     9  0.81

> <Gold.Chemscore.Hbond.Weighted>
-4.7278

> <Gold.Chemscore.Metal.Weighted>
-0.0000

> <Gold.Chemscore.Lipo.Weighted>
-13.2297

> <Gold.Chemscore.Internal_Hbond.Weighted>
0.0000

> <Gold.Chemscore.DEClash.Weighted>
0.1941

> <Gold.Chemscore.DEInternal.Weighted>
4.6850

> <Gold.Chemscore.Rot.Weighted>
4.1090

> <Gold.Chemscore.Internal.Correction.Weighted>
   9.000000E+99

> <Gold.Protein.RotatedTorsions>
[ 6907 6896 6895 6894 ] final -108.51 input  -60.11 | X-H torsion
[ 7974 7965 7964 7962 ] final -146.77 input  175.53 | X-H torsion
[ 8008 7997 7996 7995 ] final   55.09 input   59.86 | X-H torsion
[ 10167 10162 10161 10158 ] final   90.37 input  -65.29 | X-H torsion
[ 10718 10713 10712 10709 ] final -104.20 input   66.30 | X-H torsion
[ 10763 10752 10751 10750 ] final  116.79 input  -60.55 | X-H torsion
[ 11005 11000 10999 10996 ] final  176.64 input  -57.11 | X-H torsion

> <Gold.Protein.ActiveResidues>
 VAL166  LYS551  ARG553  GLY616  TRP617  ASP618  TYR619  PRO620  LYS621  CYS622 
 ASP623  PHE694  ASN695  SER759  ASP760  ASP761  ALA762  ILE779  LEU786  VAL792 
 PHE793  MET794  SER795  GLU796  ALA797  LYS798  CYS799  TRP800  GLU811  SER814 

> <Gold.Protein.RotatedAtoms>
  150.7506  133.9667  159.3532 H   0  0  0  0  0  0  0  0  0  0  0  0  # atno 6907 bound_to 6896
  151.7598  135.0811  160.0353 H   0  0  0  0  0  0  0  0  0  0  0  0  # atno 6908 bound_to 6896
  152.3411  133.6031  159.5913 H   0  0  0  0  0  0  0  0  0  0  0  0  # atno 6909 bound_to 6896
  144.8137  140.5413  143.5625 H   0  0  0  0  0  0  0  0  0  0  0  0  # atno 7974 bound_to 7965
  155.4954  140.3473  155.4362 H   0  0  0  0  0  0  0  0  0  0  0  0  # atno 8008 bound_to 7997
  156.0949  140.1420  156.9572 H   0  0  0  0  0  0  0  0  0  0  0  0  # atno 8009 bound_to 7997
  154.4657  140.0918  156.6991 H   0  0  0  0  0  0  0  0  0  0  0  0  # atno 8010 bound_to 7997
  139.8479  144.6608  150.9204 H   0  0  0  0  0  0  0  0  0  0  0  0  # atno 10167 bound_to 10162
  156.0295  130.5504  150.7363 H   0  0  0  0  0  0  0  0  0  0  0  0  # atno 10718 bound_to 10713
  153.5425  135.3556  155.2724 H   0  0  0  0  0  0  0  0  0  0  0  0  # atno 10763 bound_to 10752
  154.8716  135.4094  154.3028 H   0  0  0  0  0  0  0  0  0  0  0  0  # atno 10764 bound_to 10752
  153.3738  135.7065  153.6686 H   0  0  0  0  0  0  0  0  0  0  0  0  # atno 10765 bound_to 10752
  140.3754  134.6993  157.4418 H   0  0  0  0  0  0  0  0  0  0  0  0  # atno 11005 bound_to 11000
  145.5264  139.1476  143.3524 LP  0  0  0  0  0  0  0  0  0  0  0  0  # atno 17320 bound_to 7965
  146.2438  140.5405  142.8922 LP  0  0  0  0  0  0  0  0  0  0  0  0  # atno 17321 bound_to 7965
  140.7791  143.3853  151.1404 LP  0  0  0  0  0  0  0  0  0  0  0  0  # atno 17342 bound_to 10162
  139.7494  143.8802  152.3072 LP  0  0  0  0  0  0  0  0  0  0  0  0  # atno 17343 bound_to 10162
  157.4943  131.0913  151.0390 LP  0  0  0  0  0  0  0  0  0  0  0  0  # atno 17370 bound_to 10713
  157.0788  130.5894  149.5416 LP  0  0  0  0  0  0  0  0  0  0  0  0  # atno 17371 bound_to 10713
  140.0519  134.6118  155.8851 LP  0  0  0  0  0  0  0  0  0  0  0  0  # atno 17394 bound_to 11000
  141.1941  133.6581  156.5579 LP  0  0  0  0  0  0  0  0  0  0  0  0  # atno 17395 bound_to 11000

$$$$
