AV-unprocessed.smi:1582|AV-procd|sdf|6361|dock3
  -GOLD-   22720 6583D 1   1.00000     0.00000
 Structure written by MMmdl.
 41 42  0  0  0  0  0  0  0  0  2 V2000
  147.2217  138.0252  153.4383 O   0  0  0  0  0  0  0  0  0  0  0  0
  146.2339  138.6877  153.1207 C   0  0  0  0  0  0  0  0  0  0  0  0
  145.1021  138.1475  152.6479 N   0  0  0  0  0  0  0  0  0  0  0  0
  144.8862  136.7235  152.4124 C   0  0  0  0  0  0  0  0  0  0  0  0
  145.8011  136.1723  151.2988 C   0  0  2  0  0  0  0  0  0  0  0  0
  146.2150  137.2525  150.4852 O   0  0  0  0  0  0  0  0  0  0  0  0
  145.0458  135.1839  150.3858 C   0  0  0  0  0  0  0  0  0  0  0  0
  144.9861  133.8103  150.9498 N   0  3  0  0  0  0  0  0  0  0  0  0
  146.3351  133.2762  151.2725 C   0  0  0  0  0  0  0  0  0  0  0  0
  146.2414  131.9167  151.9854 C   0  0  0  0  0  0  0  0  0  0  0  0
  145.4444  130.9102  151.1461 C   0  0  0  0  0  0  0  0  0  0  0  0
  144.0684  131.4934  150.8006 C   0  0  0  0  0  0  0  0  0  0  0  0
  144.2070  132.8607  150.1101 C   0  0  0  0  0  0  0  0  0  0  0  0
  146.1420  140.0252  153.1999 N   0  0  0  0  0  0  0  0  0  0  0  0
  147.1435  140.9326  153.6292 C   0  0  0  0  0  0  0  0  0  0  0  0
  148.5410  140.6761  153.5841 C   0  0  0  0  0  0  0  0  0  0  0  0
  149.2365  141.7019  154.0539 N   0  0  0  0  0  0  0  0  0  0  0  0
  148.2964  142.6112  154.3972 N   0  0  0  0  0  0  0  0  0  0  0  0
  147.0085  142.1864  154.1561 C   0  0  0  0  0  0  0  0  0  0  0  0
  148.5466  143.5071  154.7913 H   0  0  0  0  0  0  0  0  0  0  0  0
  144.3415  138.7686  152.4130 H   0  0  0  0  0  0  0  0  0  0  0  0
  145.1246  136.2297  153.3548 H   0  0  0  0  0  0  0  0  0  0  0  0
  143.8343  136.5048  152.2180 H   0  0  0  0  0  0  0  0  0  0  0  0
  146.6742  135.6947  151.7433 H   0  0  0  0  0  0  0  0  0  0  0  0
  145.4640  137.5732  150.0070 H   0  0  0  0  0  0  0  0  0  0  0  0
  144.0306  135.5349  150.1938 H   0  0  0  0  0  0  0  0  0  0  0  0
  145.5456  135.1629  149.4157 H   0  0  0  0  0  0  0  0  0  0  0  0
  146.9194  133.1826  150.3557 H   0  0  0  0  0  0  0  0  0  0  0  0
  146.8653  133.9785  151.9169 H   0  0  0  0  0  0  0  0  0  0  0  0
  147.2413  131.5291  152.1823 H   0  0  0  0  0  0  0  0  0  0  0  0
  145.7622  132.0447  152.9571 H   0  0  0  0  0  0  0  0  0  0  0  0
  145.9894  130.6796  150.2298 H   0  0  0  0  0  0  0  0  0  0  0  0
  145.3317  129.9711  151.6886 H   0  0  0  0  0  0  0  0  0  0  0  0
  143.5230  130.8031  150.1561 H   0  0  0  0  0  0  0  0  0  0  0  0
  143.4762  131.6011  151.7105 H   0  0  0  0  0  0  0  0  0  0  0  0
  143.2116  133.2559  149.9115 H   0  0  0  0  0  0  0  0  0  0  0  0
  144.6974  132.7420  149.1426 H   0  0  0  0  0  0  0  0  0  0  0  0
  145.2696  140.4409  152.9081 H   0  0  0  0  0  0  0  0  0  0  0  0
  149.0631  139.7974  153.2346 H   0  0  0  0  0  0  0  0  0  0  0  0
  146.1471  142.7992  154.3770 H   0  0  0  0  0  0  0  0  0  0  0  0
  144.5005  133.8930  151.8320 H   0  0  0  0  0  0  0  0  0  0  0  0
  1  2  2  0  0  0  0
  2  3  1  0  0  0  0
  2 14  1  0  0  0  0
  3  4  1  0  0  0  0
  3 21  1  0  0  0  0
  4  5  1  0  0  0  0
  4 22  1  0  0  0  0
  4 23  1  0  0  0  0
  5  6  1  0  0  0  0
  5  7  1  0  0  0  0
  5 24  1  0  0  0  0
  6 25  1  0  0  0  0
  7  8  1  0  0  0  0
  7 26  1  0  0  0  0
  7 27  1  0  0  0  0
  8 13  1  0  0  0  0
  8  9  1  0  0  0  0
  8 41  1  0  0  0  0
  9 10  1  0  0  0  0
  9 28  1  0  0  0  0
  9 29  1  0  0  0  0
 10 11  1  0  0  0  0
 10 30  1  0  0  0  0
 10 31  1  0  0  0  0
 11 12  1  0  0  0  0
 11 32  1  0  0  0  0
 11 33  1  0  0  0  0
 12 13  1  0  0  0  0
 12 34  1  0  0  0  0
 12 35  1  0  0  0  0
 13 36  1  0  0  0  0
 13 37  1  0  0  0  0
 14 15  1  0  0  0  0
 14 38  1  0  0  0  0
 15 19  2  0  0  0  0
 15 16  1  0  0  0  0
 16 17  2  0  0  0  0
 16 39  1  0  0  0  0
 17 18  1  0  0  0  0
 18 20  1  0  0  0  0
 18 19  1  0  0  0  0
 19 40  1  0  0  0  0
M  CHG  1   8   1
M  END
> <s_m_source_file>
AV-unprocessed.smi

> <i_m_source_file_index>
1582

> <i_lp_mmshare_version>
43012

> <i_f3d_flags>
0

> <s_epik_input>
W2NIXTFbbkhdbltjSF1jMVtOSF1DKD1PKVtOSF1bQ0gyXVtDQEhdKFtPSF0pW0NIMl1OMltDSDJdW0NIMl1bQ0gyXVtDSDJdW0NIMl0y

> <s_epik_cmdline>
J2VwaWtfcHl0aG9uJywgJy1waCcsICc3LjAnLCAnLXRuJywgJzgnLCAnLW1hJywgJzIwMCcsICctbWV0YWxfYmluZGluZycsICctaW1hZScsICc8aW5maWxlLm1hZT4nLCAnLW9tYWUnLCAnPG91dGZpbGUubWFlPic=

> <r_lp_tautomer_probability>
0.5

> <r_epik_Ionization_Penalty>
0.00519658

> <r_epik_Ionization_Penalty_Charging>
0.00515354

> <r_epik_Ionization_Penalty_Neutral>
4.30332e-05

> <r_epik_State_Penalty>
0.00375424

> <r_epik_Charging_Adjusted_Penalty>
0.00890779

> <i_epik_Tot_Q>
1

> <i_epik_Tot_abs_Q>
1

> <r_epik_Metal_State_Penalty>
-0

> <b_epik_Metal_Only>
0

> <s_lp_Force_Field>
OPLS_2005

> <r_lp_Energy>
21.997

> <b_lp_Chiralities_Consistent>
1

> <s_lp_Variant>
AV-unprocessed.smi:1582-1

> <Gold.Version>
5.8.1

> <Gold.Id.Protein>
6NUR|6NUR_protein|mol2

> <Gold.PLP.Fitness>
51.0173

> <Gold.PLP.PLP>
-35.7259

> <Gold.PLP.part.hbond>
-8.0053

> <Gold.PLP.part.metal>
0.0000

> <Gold.PLP.part.buried>
-1.0598

> <Gold.PLP.part.nonpolar>
-29.3845

> <Gold.PLP.part.repulsive>
2.8557

> <Gold.PLP.ligand.clash>
0.0000

> <Gold.PLP.ligand.torsion>
0.9222

> <Gold.PLP.Chemscore.Hbond>
5.0805

> <Gold.PLP.Chemscore.CHOScore>
0.6122

> <Gold.PLP.Chemscore.Metal>
0.0000

> <Gold.Chemscore.Hbonds>
donor molecule, donor type, donor heavy atom, donor atom, acceptor molecule, acceptor atom, score
      L1  H     3    21       P1 10175  0.98
      L1  H     6    25       P1 10171  1.00
      L1  H    14    38       P1 10175  1.00
      L1  H    18    20       P1  8028  0.91
      P1  H  7954  7966       L1     6  0.67
      P1  H  8011  8017       L1    17  0.52
      L1  C    16    39       P1  7957  0.60

> <Gold.PLP.Chemscore.Internal.Correction>
0.0576

> <Gold.Rescore>
     Score         DG    S(hbond)    S(metal)    S(lipo)     H(rot)  DE(clash)    DE(int)     intcor
     21.22     -23.80       4.65        0.00      80.37       2.59       0.50       2.08       ----

> <Gold.Chemscore.Fitness>
21.2240

> <Gold.Chemscore.DG>
-23.8045

> <Gold.Chemscore.ZeroCoef>
-5.4800

> <Gold.Chemscore.Hbond>
4.6544

> <Gold.Chemscore.Metal>
0.0000

> <Gold.Chemscore.Lipo>
80.3672

> <Gold.Chemscore.Internal_Hbond>
0.0000

> <Gold.Chemscore.DEClash>
0.4966

> <Gold.Chemscore.DEInternal>
2.0840

> <Gold.Chemscore.Rot>
2.5876

> <Gold.Chemscore.Internal.Correction>
   9.000000E+99

> <Gold.Chemscore.Hbonds>
donor molecule, donor type, donor heavy atom, donor atom, acceptor molecule, acceptor atom, score
      L1  H     3    21       P1 10175  0.93
      L1  H     6    25       P1 10171  0.98
      L1  H    14    38       P1 10175  0.90
      L1  H    18    20       P1  8028  0.89
      P1  H  7954  7966       L1     6  0.63
      P1  H  8011  8017       L1    17  0.03

> <Gold.Chemscore.Hbond.Weighted>
-15.5457

> <Gold.Chemscore.Metal.Weighted>
-0.0000

> <Gold.Chemscore.Lipo.Weighted>
-9.4030

> <Gold.Chemscore.Internal_Hbond.Weighted>
0.0000

> <Gold.Chemscore.DEClash.Weighted>
0.4966

> <Gold.Chemscore.DEInternal.Weighted>
2.0840

> <Gold.Chemscore.Rot.Weighted>
6.6242

> <Gold.Chemscore.Internal.Correction.Weighted>
   9.000000E+99

> <Gold.Protein.RotatedTorsions>
[ 6907 6896 6895 6894 ] final  -52.29 input  -60.11 | X-H torsion
[ 7974 7965 7964 7962 ] final -116.01 input  175.53 | X-H torsion
[ 8008 7997 7996 7995 ] final   68.72 input   59.86 | X-H torsion
[ 10167 10162 10161 10158 ] final  -19.35 input  -65.29 | X-H torsion
[ 10718 10713 10712 10709 ] final  -42.53 input   66.30 | X-H torsion
[ 10763 10752 10751 10750 ] final   95.72 input  -60.55 | X-H torsion
[ 11005 11000 10999 10996 ] final -118.43 input  -57.11 | X-H torsion

> <Gold.Protein.ActiveResidues>
 VAL166  LYS551  ARG553  GLY616  TRP617  ASP618  TYR619  PRO620  LYS621  CYS622 
 ASP623  PHE694  ASN695  SER759  ASP760  ASP761  ALA762  ILE779  LEU786  VAL792 
 PHE793  MET794  SER795  GLU796  ALA797  LYS798  CYS799  TRP800  GLU811  SER814 

> <Gold.Protein.RotatedAtoms>
  150.8532  134.7863  159.7024 H   0  0  0  0  0  0  0  0  0  0  0  0  # atno 6907 bound_to 6896
  152.4591  134.5222  159.9796 H   0  0  0  0  0  0  0  0  0  0  0  0  # atno 6908 bound_to 6896
  151.5339  133.3406  159.2959 H   0  0  0  0  0  0  0  0  0  0  0  0  # atno 6909 bound_to 6896
  145.1017  140.8556  143.3922 H   0  0  0  0  0  0  0  0  0  0  0  0  # atno 7974 bound_to 7965
  155.7127  140.3494  155.4981 H   0  0  0  0  0  0  0  0  0  0  0  0  # atno 8008 bound_to 7997
  155.9341  140.1089  157.1130 H   0  0  0  0  0  0  0  0  0  0  0  0  # atno 8009 bound_to 7997
  154.4090  140.1225  156.4828 H   0  0  0  0  0  0  0  0  0  0  0  0  # atno 8010 bound_to 7997
  140.7267  143.4827  151.0096 H   0  0  0  0  0  0  0  0  0  0  0  0  # atno 10167 bound_to 10162
  156.2587  130.4195  149.8567 H   0  0  0  0  0  0  0  0  0  0  0  0  # atno 10718 bound_to 10713
  153.2565  135.4244  155.0851 H   0  0  0  0  0  0  0  0  0  0  0  0  # atno 10763 bound_to 10752
  154.8403  135.3438  154.6438 H   0  0  0  0  0  0  0  0  0  0  0  0  # atno 10764 bound_to 10752
  153.6859  135.7036  153.5161 H   0  0  0  0  0  0  0  0  0  0  0  0  # atno 10765 bound_to 10752
  141.0286  134.0016  157.3177 H   0  0  0  0  0  0  0  0  0  0  0  0  # atno 11005 bound_to 11000
  145.0948  139.2864  143.5716 LP  0  0  0  0  0  0  0  0  0  0  0  0  # atno 17320 bound_to 7965
  146.3529  140.0497  142.8637 LP  0  0  0  0  0  0  0  0  0  0  0  0  # atno 17321 bound_to 7965
  139.8527  143.7417  152.3177 LP  0  0  0  0  0  0  0  0  0  0  0  0  # atno 17342 bound_to 10162
  139.7605  144.7508  151.0371 LP  0  0  0  0  0  0  0  0  0  0  0  0  # atno 17343 bound_to 10162
  156.6090  130.8579  151.3450 LP  0  0  0  0  0  0  0  0  0  0  0  0  # atno 17370 bound_to 10713
  157.7242  130.9600  150.1565 LP  0  0  0  0  0  0  0  0  0  0  0  0  # atno 17371 bound_to 10713
  139.9192  135.0199  156.8001 LP  0  0  0  0  0  0  0  0  0  0  0  0  # atno 17394 bound_to 11000
  140.6447  133.9786  155.7725 LP  0  0  0  0  0  0  0  0  0  0  0  0  # atno 17395 bound_to 11000

$$$$
