AV-unprocessed.smi:1879|AV-procd|sdf|7634|dock2
  -GOLD-   22720 9353D 1   1.00000     0.00000
 Structure written by MMmdl.
 47 49  0  0  0  0  0  0  0  0  2 V2000
  150.5611  140.6768  156.5670 O   0  0  0  0  0  0  0  0  0  0  0  0
  150.0183  141.7689  156.3997 C   0  0  0  0  0  0  0  0  0  0  0  0
  148.9883  142.0026  155.5693 N   0  0  0  0  0  0  0  0  0  0  0  0
  148.3112  141.0816  154.7199 C   0  0  0  0  0  0  0  0  0  0  0  0
  148.8938  139.8377  154.3635 C   0  0  0  0  0  0  0  0  0  0  0  0
  148.2061  138.9588  153.5059 C   0  0  0  0  0  0  0  0  0  0  0  0
  146.9426  139.3335  153.0189 C   0  0  0  0  0  0  0  0  0  0  0  0
  146.4061  140.5134  153.3922 N   0  3  0  0  0  0  0  0  0  0  0  0
  147.0113  141.3955  154.2262 C   0  0  0  0  0  0  0  0  0  0  0  0
  146.3181  142.5866  154.5418 N   0  0  0  0  0  0  0  0  0  0  0  0
  145.8556  143.4746  153.4813 C   0  0  0  0  0  0  0  0  0  0  0  0
  144.8647  144.4174  154.1582 C   0  0  0  0  0  0  0  0  0  0  0  0
  144.2060  143.5112  155.1934 C   0  0  0  0  0  0  0  0  0  0  0  0
  145.3348  142.5667  155.6202 C   0  0  0  0  0  0  0  0  0  0  0  0
  150.4043  142.8932  157.0190 N   0  0  0  0  0  0  0  0  0  0  0  0
  151.5006  142.9963  157.9774 C   0  0  2  0  0  0  0  0  0  0  0  0
  151.4678  141.7816  158.9230 C   0  0  0  0  0  0  0  0  0  0  0  0
  152.5661  141.8675  159.9971 C   0  0  0  0  0  0  0  0  0  0  0  0
  152.5055  143.1876  160.7879 C   0  0  2  0  0  0  0  0  0  0  0  0
  151.3561  143.2053  161.6113 O   0  0  0  0  0  0  0  0  0  0  0  0
  152.5010  144.4082  159.8488 C   0  0  0  0  0  0  0  0  0  0  0  0
  151.4037  144.3135  158.7740 C   0  0  0  0  0  0  0  0  0  0  0  0
  148.7175  142.9693  155.4651 H   0  0  0  0  0  0  0  0  0  0  0  0
  149.8595  139.5374  154.7406 H   0  0  0  0  0  0  0  0  0  0  0  0
  148.6438  138.0119  153.2255 H   0  0  0  0  0  0  0  0  0  0  0  0
  146.3442  138.7268  152.3549 H   0  0  0  0  0  0  0  0  0  0  0  0
  146.6840  144.0176  153.0255 H   0  0  0  0  0  0  0  0  0  0  0  0
  145.3448  142.9070  152.7022 H   0  0  0  0  0  0  0  0  0  0  0  0
  145.3988  145.2269  154.6581 H   0  0  0  0  0  0  0  0  0  0  0  0
  144.1527  144.8591  153.4605 H   0  0  0  0  0  0  0  0  0  0  0  0
  143.7749  144.0625  156.0295 H   0  0  0  0  0  0  0  0  0  0  0  0
  143.4069  142.9385  154.7212 H   0  0  0  0  0  0  0  0  0  0  0  0
  144.9575  141.5619  155.8158 H   0  0  0  0  0  0  0  0  0  0  0  0
  145.8059  142.9377  156.5309 H   0  0  0  0  0  0  0  0  0  0  0  0
  149.9040  143.7460  156.8149 H   0  0  0  0  0  0  0  0  0  0  0  0
  152.4490  142.9792  157.4365 H   0  0  0  0  0  0  0  0  0  0  0  0
  150.4923  141.7155  159.4071 H   0  0  0  0  0  0  0  0  0  0  0  0
  151.5886  140.8606  158.3514 H   0  0  0  0  0  0  0  0  0  0  0  0
  152.4944  141.0164  160.6754 H   0  0  0  0  0  0  0  0  0  0  0  0
  153.5404  141.7881  159.5131 H   0  0  0  0  0  0  0  0  0  0  0  0
  153.3712  143.2478  161.4484 H   0  0  0  0  0  0  0  0  0  0  0  0
  151.0869  144.1030  161.7322 H   0  0  0  0  0  0  0  0  0  0  0  0
  152.3847  145.3280  160.4234 H   0  0  0  0  0  0  0  0  0  0  0  0
  153.4713  144.4796  159.3556 H   0  0  0  0  0  0  0  0  0  0  0  0
  151.4837  145.1679  158.1009 H   0  0  0  0  0  0  0  0  0  0  0  0
  150.4237  144.3879  159.2475 H   0  0  0  0  0  0  0  0  0  0  0  0
  145.4826  140.7522  153.0309 H   0  0  0  0  0  0  0  0  0  0  0  0
  1  2  2  0  0  0  0
  2  3  1  0  0  0  0
  2 15  1  0  0  0  0
  3  4  1  0  0  0  0
  3 23  1  0  0  0  0
  4  9  1  0  0  0  0
  4  5  2  0  0  0  0
  5  6  1  0  0  0  0
  5 24  1  0  0  0  0
  6  7  2  0  0  0  0
  6 25  1  0  0  0  0
  7  8  1  0  0  0  0
  7 26  1  0  0  0  0
  8  9  2  0  0  0  0
  8 47  1  0  0  0  0
  9 10  1  0  0  0  0
 10 14  1  0  0  0  0
 10 11  1  0  0  0  0
 11 12  1  0  0  0  0
 11 27  1  0  0  0  0
 11 28  1  0  0  0  0
 12 13  1  0  0  0  0
 12 29  1  0  0  0  0
 12 30  1  0  0  0  0
 13 14  1  0  0  0  0
 13 31  1  0  0  0  0
 13 32  1  0  0  0  0
 14 33  1  0  0  0  0
 14 34  1  0  0  0  0
 15 16  1  0  0  0  0
 15 35  1  0  0  0  0
 16 22  1  0  0  0  0
 16 17  1  0  0  0  0
 16 36  1  0  0  0  0
 17 18  1  0  0  0  0
 17 37  1  0  0  0  0
 17 38  1  0  0  0  0
 18 19  1  0  0  0  0
 18 39  1  0  0  0  0
 18 40  1  0  0  0  0
 19 20  1  0  0  0  0
 19 21  1  0  0  0  0
 19 41  1  0  0  0  0
 20 42  1  0  0  0  0
 21 22  1  0  0  0  0
 21 43  1  0  0  0  0
 21 44  1  0  0  0  0
 22 45  1  0  0  0  0
 22 46  1  0  0  0  0
M  CHG  1   8   1
M  END
> <s_m_source_file>
AV-unprocessed.smi

> <i_m_source_file_index>
1879

> <i_lp_mmshare_version>
43012

> <i_f3d_flags>
0

> <s_epik_input>
W0NIMl0xW0NIMl1bQ0BIXShbT0hdKVtDSDJdW0NIMl1bQ0BIXTFbTkhdQyg9TylbTkhdYzJbY0hdW2NIXVtjSF1uYzJOM1tDSDJdW0NIMl1bQ0gyXVtDSDJdMw==

> <s_epik_cmdline>
J2VwaWtfcHl0aG9uJywgJy1waCcsICc3LjAnLCAnLXRuJywgJzgnLCAnLW1hJywgJzIwMCcsICctbWV0YWxfYmluZGluZycsICctaW1hZScsICc8aW5maWxlLm1hZT4nLCAnLW9tYWUnLCAnPG91dGZpbGUubWFlPic=

> <r_lp_tautomer_probability>
0.999994

> <r_epik_Ionization_Penalty>
1.08454

> <r_epik_Ionization_Penalty_Charging>
1.08452

> <r_epik_Ionization_Penalty_Neutral>
2.17987e-05

> <r_epik_State_Penalty>
1.14025

> <r_epik_Charging_Adjusted_Penalty>
2.22477

> <i_epik_Tot_Q>
1

> <i_epik_Tot_abs_Q>
1

> <r_epik_Metal_State_Penalty>
1.22973

> <b_epik_Metal_Only>
0

> <s_lp_Force_Field>
OPLS_2005

> <r_lp_Energy>
43.5089

> <b_lp_Chiralities_Consistent>
1

> <s_lp_Variant>
AV-unprocessed.smi:1879-4

> <Gold.Version>
5.8.1

> <Gold.Id.Protein>
6NUR|6NUR_protein|mol2

> <Gold.PLP.Fitness>
59.2171

> <Gold.PLP.PLP>
-46.6776

> <Gold.PLP.part.hbond>
-4.9882

> <Gold.PLP.part.metal>
0.0000

> <Gold.PLP.part.buried>
-6.6593

> <Gold.PLP.part.nonpolar>
-35.8314

> <Gold.PLP.part.repulsive>
0.3750

> <Gold.PLP.ligand.clash>
0.0000

> <Gold.PLP.ligand.torsion>
0.6555

> <Gold.PLP.Chemscore.Hbond>
4.4917

> <Gold.PLP.Chemscore.CHOScore>
0.0000

> <Gold.PLP.Chemscore.Metal>
0.0000

> <Gold.Chemscore.Hbonds>
donor molecule, donor type, donor heavy atom, donor atom, acceptor molecule, acceptor atom, score
      L1  H     3    23       P1  8028  1.00
      L1  H     8    47       P1 10175  2.00
      L1  H    15    35       P1  8028  1.00
      P1  H  6933  6945       L1    20  0.47

> <Gold.PLP.Chemscore.Internal.Correction>
0.3754

> <Gold.Rescore>
     Score         DG    S(hbond)    S(metal)    S(lipo)     H(rot)  DE(clash)    DE(int)     intcor
     21.10     -24.93       3.36        0.00     107.23       1.69       0.37       3.45       ----

> <Gold.Chemscore.Fitness>
21.1024

> <Gold.Chemscore.DG>
-24.9251

> <Gold.Chemscore.ZeroCoef>
-5.4800

> <Gold.Chemscore.Hbond>
3.3633

> <Gold.Chemscore.Metal>
0.0000

> <Gold.Chemscore.Lipo>
107.2273

> <Gold.Chemscore.Internal_Hbond>
0.0000

> <Gold.Chemscore.DEClash>
0.3725

> <Gold.Chemscore.DEInternal>
3.4503

> <Gold.Chemscore.Rot>
1.6929

> <Gold.Chemscore.Internal.Correction>
   9.000000E+99

> <Gold.Chemscore.Hbonds>
donor molecule, donor type, donor heavy atom, donor atom, acceptor molecule, acceptor atom, score
      L1  H     3    23       P1  8028  0.99
      L1  H     8    47       P1 10175  0.65
      L1  H    15    35       P1  8028  0.94
      P1  H  6933  6945       L1    20  0.41

> <Gold.Chemscore.Hbond.Weighted>
-11.2333

> <Gold.Chemscore.Metal.Weighted>
-0.0000

> <Gold.Chemscore.Lipo.Weighted>
-12.5456

> <Gold.Chemscore.Internal_Hbond.Weighted>
0.0000

> <Gold.Chemscore.DEClash.Weighted>
0.3725

> <Gold.Chemscore.DEInternal.Weighted>
3.4503

> <Gold.Chemscore.Rot.Weighted>
4.3338

> <Gold.Chemscore.Internal.Correction.Weighted>
   9.000000E+99

> <Gold.Protein.RotatedTorsions>
[ 6907 6896 6895 6894 ] final   59.05 input  -60.11 | X-H torsion
[ 7974 7965 7964 7962 ] final  -27.30 input  175.53 | X-H torsion
[ 8008 7997 7996 7995 ] final -177.47 input   59.86 | X-H torsion
[ 10167 10162 10161 10158 ] final   59.02 input  -65.29 | X-H torsion
[ 10718 10713 10712 10709 ] final -123.62 input   66.30 | X-H torsion
[ 10763 10752 10751 10750 ] final   29.33 input  -60.55 | X-H torsion
[ 11005 11000 10999 10996 ] final   18.74 input  -57.11 | X-H torsion

> <Gold.Protein.ActiveResidues>
 VAL166  LYS551  ARG553  GLY616  TRP617  ASP618  TYR619  PRO620  LYS621  CYS622 
 ASP623  PHE694  ASN695  SER759  ASP760  ASP761  ALA762  ILE779  LEU786  VAL792 
 PHE793  MET794  SER795  GLU796  ALA797  LYS798  CYS799  TRP800  GLU811  SER814 

> <Gold.Protein.RotatedAtoms>
  152.3880  134.6486  160.0118 H   0  0  0  0  0  0  0  0  0  0  0  0  # atno 6907 bound_to 6896
  151.6729  133.3308  159.3209 H   0  0  0  0  0  0  0  0  0  0  0  0  # atno 6908 bound_to 6896
  150.7802  134.6783  159.6474 H   0  0  0  0  0  0  0  0  0  0  0  0  # atno 6909 bound_to 6896
  146.1367  140.5134  142.8670 H   0  0  0  0  0  0  0  0  0  0  0  0  # atno 7974 bound_to 7965
  156.0073  140.1233  157.0489 H   0  0  0  0  0  0  0  0  0  0  0  0  # atno 8008 bound_to 7997
  154.4263  140.1095  156.5849 H   0  0  0  0  0  0  0  0  0  0  0  0  # atno 8009 bound_to 7997
  155.6129  140.3471  155.4630 H   0  0  0  0  0  0  0  0  0  0  0  0  # atno 8010 bound_to 7997
  140.1809  144.4182  150.6615 H   0  0  0  0  0  0  0  0  0  0  0  0  # atno 10167 bound_to 10162
  156.1518  130.6540  150.9924 H   0  0  0  0  0  0  0  0  0  0  0  0  # atno 10718 bound_to 10713
  153.0437  135.6491  154.0875 H   0  0  0  0  0  0  0  0  0  0  0  0  # atno 10763 bound_to 10752
  154.0577  135.2890  155.3331 H   0  0  0  0  0  0  0  0  0  0  0  0  # atno 10764 bound_to 10752
  154.6678  135.5367  153.8165 H   0  0  0  0  0  0  0  0  0  0  0  0  # atno 10765 bound_to 10752
  140.4214  134.1514  155.7673 H   0  0  0  0  0  0  0  0  0  0  0  0  # atno 11005 bound_to 11000
  144.7747  140.5714  143.6646 LP  0  0  0  0  0  0  0  0  0  0  0  0  # atno 17320 bound_to 7965
  145.5140  139.1478  143.3589 LP  0  0  0  0  0  0  0  0  0  0  0  0  # atno 17321 bound_to 7965
  140.6520  143.2227  151.6055 LP  0  0  0  0  0  0  0  0  0  0  0  0  # atno 17342 bound_to 10162
  139.5296  144.2954  152.1117 LP  0  0  0  0  0  0  0  0  0  0  0  0  # atno 17343 bound_to 10162
  157.6663  131.0871  150.7721 LP  0  0  0  0  0  0  0  0  0  0  0  0  # atno 17370 bound_to 10713
  156.7789  130.4853  149.5404 LP  0  0  0  0  0  0  0  0  0  0  0  0  # atno 17371 bound_to 10713
  141.1782  133.8469  157.1348 LP  0  0  0  0  0  0  0  0  0  0  0  0  # atno 17394 bound_to 11000
  140.0197  134.9951  157.0567 LP  0  0  0  0  0  0  0  0  0  0  0  0  # atno 17395 bound_to 11000

$$$$
