AV-unprocessed.smi:1340|AV-procd|sdf|5504|dock10
  -GOLD-   22720 5 83D 1   1.00000     0.00000
 Structure written by MMmdl.
 40 41  0  0  0  0  0  0  0  0  1 V2000
  147.3593  141.8882  154.2343 C   0  0  0  0  0  0  0  0  0  0  0  0
  148.1732  141.4358  155.4515 C   0  0  0  0  0  0  0  0  0  0  0  0
  149.6677  141.2623  155.1288 C   0  0  0  0  0  0  0  0  0  0  0  0
  150.5120  140.7809  156.3244 C   0  0  1  0  0  0  0  0  0  0  0  0
  151.6118  139.8037  155.8768 C   0  0  0  0  0  0  0  0  0  0  0  0
  151.1044  141.9227  157.0182 N   0  0  0  0  0  0  0  0  0  0  0  0
  150.4418  142.7892  157.8005 C   0  0  0  0  0  0  0  0  0  0  0  0
  149.2342  142.7030  158.0286 O   0  0  0  0  0  0  0  0  0  0  0  0
  151.2833  143.9083  158.4263 C   0  0  0  0  0  0  0  0  0  0  0  0
  151.9466  143.4607  159.6983 C   0  0  0  0  0  0  0  0  0  0  0  0
  151.9212  144.1066  160.9104 C   0  0  0  0  0  0  0  0  0  0  0  0
  152.8208  143.2466  162.1289 S   0  0  0  0  0  0  0  0  0  0  0  0
  153.2011  142.0097  160.9268 C   0  0  0  0  0  0  0  0  0  0  0  0
  153.9823  140.8353  161.1394 N   0  0  0  0  0  0  0  0  0  0  0  0
  153.9821  139.7311  160.1851 C   0  0  0  0  0  0  0  0  0  0  0  0
  154.9409  138.7158  160.7993 C   0  0  0  0  0  0  0  0  0  0  0  0
  155.3482  139.3798  162.0150 N   0  0  0  0  0  0  0  0  0  0  0  0
  154.7907  140.5804  162.1876 C   0  0  0  0  0  0  0  0  0  0  0  0
  155.0042  141.3034  163.1590 O   0  0  0  0  0  0  0  0  0  0  0  0
  152.6739  142.2655  159.7245 N   0  0  0  0  0  0  0  0  0  0  0  0
  146.3058  141.9999  154.4913 H   0  0  0  0  0  0  0  0  0  0  0  0
  147.4284  141.1632  153.4229 H   0  0  0  0  0  0  0  0  0  0  0  0
  147.7137  142.8482  153.8580 H   0  0  0  0  0  0  0  0  0  0  0  0
  148.0452  142.1645  156.2525 H   0  0  0  0  0  0  0  0  0  0  0  0
  147.7677  140.4941  155.8233 H   0  0  0  0  0  0  0  0  0  0  0  0
  149.7685  140.5439  154.3140 H   0  0  0  0  0  0  0  0  0  0  0  0
  150.0696  142.2041  154.7524 H   0  0  0  0  0  0  0  0  0  0  0  0
  149.8471  140.2550  157.0123 H   0  0  0  0  0  0  0  0  0  0  0  0
  151.1843  138.9414  155.3648 H   0  0  0  0  0  0  0  0  0  0  0  0
  152.1805  139.4278  156.7279 H   0  0  0  0  0  0  0  0  0  0  0  0
  152.3136  140.2819  155.1928 H   0  0  0  0  0  0  0  0  0  0  0  0
  152.0955  142.0667  156.8895 H   0  0  0  0  0  0  0  0  0  0  0  0
  152.0305  144.2233  157.6975 H   0  0  0  0  0  0  0  0  0  0  0  0
  150.6521  144.7783  158.6151 H   0  0  0  0  0  0  0  0  0  0  0  0
  151.4334  145.0378  161.1571 H   0  0  0  0  0  0  0  0  0  0  0  0
  152.9791  139.3161  160.0756 H   0  0  0  0  0  0  0  0  0  0  0  0
  154.3297  140.0669  159.2070 H   0  0  0  0  0  0  0  0  0  0  0  0
  154.4483  137.7693  161.0244 H   0  0  0  0  0  0  0  0  0  0  0  0
  155.8029  138.5258  160.1592 H   0  0  0  0  0  0  0  0  0  0  0  0
  155.9963  138.9630  162.6679 H   0  0  0  0  0  0  0  0  0  0  0  0
  1  2  1  0  0  0  0
  1 21  1  0  0  0  0
  1 22  1  0  0  0  0
  1 23  1  0  0  0  0
  2  3  1  0  0  0  0
  2 24  1  0  0  0  0
  2 25  1  0  0  0  0
  3  4  1  0  0  0  0
  3 26  1  0  0  0  0
  3 27  1  0  0  0  0
  4  5  1  0  0  0  0
  4  6  1  0  0  0  0
  4 28  1  0  0  0  0
  5 29  1  0  0  0  0
  5 30  1  0  0  0  0
  5 31  1  0  0  0  0
  6  7  1  0  0  0  0
  6 32  1  0  0  0  0
  7  8  2  0  0  0  0
  7  9  1  0  0  0  0
  9 10  1  0  0  0  0
  9 33  1  0  0  0  0
  9 34  1  0  0  0  0
 10 20  1  0  0  0  0
 10 11  2  0  0  0  0
 11 12  1  0  0  0  0
 11 35  1  0  0  0  0
 12 13  1  0  0  0  0
 13 14  1  0  0  0  0
 13 20  2  0  0  0  0
 14 18  1  0  0  0  0
 14 15  1  0  0  0  0
 15 16  1  0  0  0  0
 15 36  1  0  0  0  0
 15 37  1  0  0  0  0
 16 17  1  0  0  0  0
 16 38  1  0  0  0  0
 16 39  1  0  0  0  0
 17 18  1  0  0  0  0
 17 40  1  0  0  0  0
 18 19  2  0  0  0  0
M  END
> <s_m_source_file>
AV-unprocessed.smi

> <i_m_source_file_index>
1340

> <i_lp_mmshare_version>
43012

> <i_f3d_flags>
0

> <s_epik_input>
W0NIM11bQ0gyXVtDSDJdW0NASF0oW0NIM10pW05IXUMoPU8pW0NIMl1jMVtjSF1zYyhuMSlOMltDSDJdW0NIMl1bTkhdQzI9Tw==

> <s_epik_cmdline>
J2VwaWtfcHl0aG9uJywgJy1waCcsICc3LjAnLCAnLXRuJywgJzgnLCAnLW1hJywgJzIwMCcsICctbWV0YWxfYmluZGluZycsICctaW1hZScsICc8aW5maWxlLm1hZT4nLCAnLW9tYWUnLCAnPG91dGZpbGUubWFlPic=

> <r_lp_tautomer_probability>
1

> <r_epik_Ionization_Penalty>
0.00012151

> <r_epik_Ionization_Penalty_Charging>
0

> <r_epik_Ionization_Penalty_Neutral>
0.00012151

> <r_epik_State_Penalty>
-0

> <r_epik_Charging_Adjusted_Penalty>
0

> <i_epik_Tot_Q>
0

> <i_epik_Tot_abs_Q>
0

> <r_epik_Metal_State_Penalty>
-0

> <b_epik_Metal_Only>
0

> <s_lp_Force_Field>
OPLS_2005

> <r_lp_Energy>
32.5305

> <b_lp_Chiralities_Consistent>
1

> <s_lp_Variant>
AV-unprocessed.smi:1340-2

> <Gold.Version>
5.8.1

> <Gold.Id.Protein>
6NUR|6NUR_protein|mol2

> <Gold.PLP.Fitness>
41.6701

> <Gold.PLP.PLP>
-44.0171

> <Gold.PLP.part.hbond>
-1.0000

> <Gold.PLP.part.metal>
0.0000

> <Gold.PLP.part.buried>
-3.2365

> <Gold.PLP.part.nonpolar>
-38.8927

> <Gold.PLP.part.repulsive>
0.4080

> <Gold.PLP.ligand.clash>
0.0000

> <Gold.PLP.ligand.torsion>
1.2007

> <Gold.PLP.Chemscore.Hbond>
0.0000

> <Gold.PLP.Chemscore.CHOScore>
0.0000

> <Gold.PLP.Chemscore.Metal>
0.0000

> <Gold.PLP.Chemscore.Internal.Correction>
0.0545

> <Gold.Rescore>
     Score         DG    S(hbond)    S(metal)    S(lipo)     H(rot)  DE(clash)    DE(int)     intcor
      9.40     -11.38       0.00        0.00      92.37       1.92       0.08       1.90       ----

> <Gold.Chemscore.Fitness>
9.4031

> <Gold.Chemscore.DG>
-11.3779

> <Gold.Chemscore.ZeroCoef>
-5.4800

> <Gold.Chemscore.Hbond>
0.0000

> <Gold.Chemscore.Metal>
0.0000

> <Gold.Chemscore.Lipo>
92.3673

> <Gold.Chemscore.Internal_Hbond>
0.0000

> <Gold.Chemscore.DEClash>
0.0766

> <Gold.Chemscore.DEInternal>
1.8983

> <Gold.Chemscore.Rot>
1.9176

> <Gold.Chemscore.Internal.Correction>
   9.000000E+99

> <Gold.Chemscore.Hbond.Weighted>
-0.0000

> <Gold.Chemscore.Metal.Weighted>
-0.0000

> <Gold.Chemscore.Lipo.Weighted>
-10.8070

> <Gold.Chemscore.Internal_Hbond.Weighted>
0.0000

> <Gold.Chemscore.DEClash.Weighted>
0.0766

> <Gold.Chemscore.DEInternal.Weighted>
1.8983

> <Gold.Chemscore.Rot.Weighted>
4.9091

> <Gold.Chemscore.Internal.Correction.Weighted>
   9.000000E+99

> <Gold.Protein.RotatedTorsions>
[ 6907 6896 6895 6894 ] final -110.80 input  -60.11 | X-H torsion
[ 7974 7965 7964 7962 ] final  116.11 input  175.53 | X-H torsion
[ 8008 7997 7996 7995 ] final   28.98 input   59.86 | X-H torsion
[ 10167 10162 10161 10158 ] final  133.40 input  -65.29 | X-H torsion
[ 10718 10713 10712 10709 ] final -175.83 input   66.30 | X-H torsion
[ 10763 10752 10751 10750 ] final  -68.33 input  -60.55 | X-H torsion
[ 11005 11000 10999 10996 ] final  -49.13 input  -57.11 | X-H torsion

> <Gold.Protein.ActiveResidues>
 VAL166  LYS551  ARG553  GLY616  TRP617  ASP618  TYR619  PRO620  LYS621  CYS622 
 ASP623  PHE694  ASN695  SER759  ASP760  ASP761  ALA762  ILE779  LEU786  VAL792 
 PHE793  MET794  SER795  GLU796  ALA797  LYS798  CYS799  TRP800  GLU811  SER814 

> <Gold.Protein.RotatedAtoms>
  150.7648  133.9329  159.3432 H   0  0  0  0  0  0  0  0  0  0  0  0  # atno 6907 bound_to 6896
  151.7229  135.0888  160.0296 H   0  0  0  0  0  0  0  0  0  0  0  0  # atno 6908 bound_to 6896
  152.3638  133.6293  159.6071 H   0  0  0  0  0  0  0  0  0  0  0  0  # atno 6909 bound_to 6896
  145.1837  139.3036  143.4405 H   0  0  0  0  0  0  0  0  0  0  0  0  # atno 7974 bound_to 7965
  155.0672  140.3196  155.4642 H   0  0  0  0  0  0  0  0  0  0  0  0  # atno 8008 bound_to 7997
  156.2799  140.2118  156.5744 H   0  0  0  0  0  0  0  0  0  0  0  0  # atno 8009 bound_to 7997
  154.7084  140.0500  157.0514 H   0  0  0  0  0  0  0  0  0  0  0  0  # atno 8010 bound_to 7997
  139.5299  144.6617  151.4990 H   0  0  0  0  0  0  0  0  0  0  0  0  # atno 10167 bound_to 10162
  156.8057  130.9568  151.3117 H   0  0  0  0  0  0  0  0  0  0  0  0  # atno 10718 bound_to 10713
  154.3875  135.6060  153.5824 H   0  0  0  0  0  0  0  0  0  0  0  0  # atno 10763 bound_to 10752
  152.9787  135.5875  154.4337 H   0  0  0  0  0  0  0  0  0  0  0  0  # atno 10764 bound_to 10752
  154.4116  135.2844  155.2011 H   0  0  0  0  0  0  0  0  0  0  0  0  # atno 10765 bound_to 10752
  141.0741  133.6670  156.3541 H   0  0  0  0  0  0  0  0  0  0  0  0  # atno 11005 bound_to 11000
  146.3449  140.2025  142.8589 LP  0  0  0  0  0  0  0  0  0  0  0  0  # atno 17320 bound_to 7965
  145.0111  140.8714  143.5224 LP  0  0  0  0  0  0  0  0  0  0  0  0  # atno 17321 bound_to 7965
  140.6469  143.8776  150.6746 LP  0  0  0  0  0  0  0  0  0  0  0  0  # atno 17342 bound_to 10162
  140.2128  143.3870  152.1704 LP  0  0  0  0  0  0  0  0  0  0  0  0  # atno 17343 bound_to 10162
  157.6531  130.8901  149.9674 LP  0  0  0  0  0  0  0  0  0  0  0  0  # atno 17370 bound_to 10713
  156.1074  130.3652  150.0108 LP  0  0  0  0  0  0  0  0  0  0  0  0  # atno 17371 bound_to 10713
  140.5610  134.5934  157.5433 LP  0  0  0  0  0  0  0  0  0  0  0  0  # atno 17394 bound_to 11000
  139.9554  134.7545  156.0354 LP  0  0  0  0  0  0  0  0  0  0  0  0  # atno 17395 bound_to 11000

$$$$
