#       Name:                AV-unprocessed.smi:354
#       Creating user name   scv26
#       Creation time:       Thu Mar 26 22:34:00 2020


#       File generated by GOLD software.
#

@<TRIPOS>MOLECULE
AV-unprocessed.smi:354
    41    43     1
SMALL
NO_CHARGES


@<TRIPOS>ATOM
      1 ****        -1.0596   3.1781  -2.0254 O.3            1 S1                 0.0000
      2 ****        -1.4546   2.7989  -0.7256 C.3            1 S1                 0.0000
      3 ****        -1.9330   1.3858  -0.6678 C.2            1 S1                 0.0000
      4 ****        -3.2339   0.9806  -0.6993 N.pl3          1 S1                 1.0000
      5 ****        -3.2969  -0.4119  -0.6351 C.ar           1 S1                 0.0000
      6 ****        -4.3883  -1.2754  -0.6370 C.ar           1 S1                 0.0000
      7 ****        -4.1042  -2.6544  -0.5556 C.ar           1 S1                 0.0000
      8 ****        -2.7784  -3.1275  -0.4753 C.ar           1 S1                 0.0000
      9 ****        -1.6802  -2.2427  -0.4769 C.ar           1 S1                 0.0000
     10 ****        -1.9690  -0.8804  -0.5600 C.ar           1 S1                 0.0000
     11 ****        -1.1617   0.2635  -0.5880 N.pl3          1 S1                 0.0000
     12 ****         0.3027   0.1225  -0.5411 C.3            1 S1                 0.0000
     13 ****         0.8776   0.2280   0.8869 C.3            1 S1                 0.0000
     14 ****         0.2907  -0.7409   1.7341 O.3            1 S1                 0.0000
     15 ****         2.3978   0.1459   0.8824 C.ar           1 S1                 0.0000
     16 ****         3.1590   1.3067   1.1406 C.ar           1 S1                 0.0000
     17 ****         4.5662   1.2532   1.1312 C.ar           1 S1                 0.0000
     18 ****         5.2232   0.0378   0.8622 C.ar           1 S1                 0.0000
     19 ****         4.4716  -1.1237   0.6025 C.ar           1 S1                 0.0000
     20 ****         3.0637  -1.0727   0.6101 C.ar           1 S1                 0.0000
     21 ****         2.3585  -2.1999   0.3493 F              1 S1                 0.0000
     22 ****        -0.7589   4.0737  -2.0002 H              1 S1                 0.0000
     23 ****        -0.6138   2.9281  -0.0440 H              1 S1                 0.0000
     24 ****        -2.2476   3.4658  -0.3862 H              1 S1                 0.0000
     25 ****        -5.4051  -0.9159  -0.6966 H              1 S1                 0.0000
     26 ****        -4.9192  -3.3635  -0.5529 H              1 S1                 0.0000
     27 ****        -2.5991  -4.1909  -0.4106 H              1 S1                 0.0000
     28 ****        -0.6692  -2.6165  -0.4088 H              1 S1                 0.0000
     29 ****         0.5846  -0.8157  -1.0187 H              1 S1                 0.0000
     30 ****         0.7218   0.9120  -1.1658 H              1 S1                 0.0000
     31 ****         0.5922   1.1968   1.2984 H              1 S1                 0.0000
     32 ****         0.5982  -0.5935   2.6156 H              1 S1                 0.0000
     33 ****         2.6666   2.2460   1.3460 H              1 S1                 0.0000
     34 ****         5.1417   2.1456   1.3285 H              1 S1                 0.0000
     35 ****         6.3025  -0.0033   0.8535 H              1 S1                 0.0000
     36 ****         4.9756  -2.0559   0.3940 H              1 S1                 0.0000
     37 ****        -4.0202   1.6140  -0.7643 H              1 S1                 0.0000
     38 ****        -1.8371   3.1013  -2.6496 LP             1 S1                 0.0000
     39 ****        -0.3199   2.5832  -2.3397 LP             1 S1                 0.0000
     40 ****         0.5554  -1.6570   1.4331 LP             1 S1                 0.0000
     41 ****        -0.7053  -0.6554   1.7054 LP             1 S1                 0.0000
@<TRIPOS>BOND
    1    1    2 1     
    2    1   22 1     
    3    2    3 1     
    4    2   23 1     
    5    2   24 1     
    6    3   11 1     
    7    3    4 2     
    8    4    5 1     
    9    4   37 1     
   10    5   10 ar    
   11    5    6 ar    
   12    6    7 ar    
   13    6   25 1     
   14    7    8 ar    
   15    7   26 1     
   16    8    9 ar    
   17    8   27 1     
   18    9   10 ar    
   19    9   28 1     
   20   10   11 1     
   21   11   12 1     
   22   12   13 1     
   23   12   29 1     
   24   12   30 1     
   25   13   14 1     
   26   13   15 1     
   27   13   31 1     
   28   14   32 1     
   29   15   20 ar    
   30   15   16 ar    
   31   16   17 ar    
   32   16   33 1     
   33   17   18 ar    
   34   17   34 1     
   35   18   19 ar    
   36   18   35 1     
   37   19   20 ar    
   38   19   36 1     
   39   20   21 1     
   40    1   38 1     
   41    1   39 1     
   42   14   40 1     
   43   14   41 1     
@<TRIPOS>SUBSTRUCTURE
      1 S1             1
@<TRIPOS>SET
LONE_PAIRS      STATIC     ATOMS    <user>   **** ""
4 38 39 40 41
DONOR_HYDROGENS      STATIC     ATOMS    <user>   **** ""
3 22 37 32
ATOM$BLUE        STATIC     ATOMS    COLORGROUP SYSTEM
4 38 39 40 41
ATOM$RED        STATIC     ATOMS    COLORGROUP SYSTEM
3 22 37 32
