AV-unprocessed.smi:2104|AV-procd|sdf|8583|dock3
  -GOLD-   2272011313D 1   1.00000     0.00000
 Structure written by MMmdl.
 43 44  0  0  0  0  0  0  0  0  1 V2000
  151.9721  139.4166  158.2652 C   0  0  0  0  0  0  0  0  0  0  0  0
  151.5158  139.4333  156.8466 C   0  0  0  0  0  0  0  0  0  0  0  0
  150.3036  139.2106  156.2563 C   0  0  0  0  0  0  0  0  0  0  0  0
  150.5827  139.3897  154.8752 C   0  0  0  0  0  0  0  0  0  0  0  0
  149.5623  139.2407  153.9014 N   0  0  0  0  0  0  0  0  0  0  0  0
  148.3743  138.6299  154.0466 C   0  0  0  0  0  0  0  0  0  0  0  0
  147.9895  138.0620  155.0692 O   0  0  0  0  0  0  0  0  0  0  0  0
  147.6439  138.7164  152.9252 N   0  0  0  0  0  0  0  0  0  0  0  0
  146.2900  138.1973  152.7602 C   0  0  0  0  0  0  0  0  0  0  0  0
  146.2792  136.9142  151.9169 C   0  0  0  0  0  0  0  0  0  0  0  0
  144.9507  136.4204  151.8421 O   0  0  0  0  0  0  0  0  0  0  0  0
  144.8460  135.0069  151.7491 C   0  0  2  0  0  0  0  0  0  0  0  0
  145.6914  134.5179  150.5539 C   0  0  0  0  0  0  0  0  0  0  0  0
  145.5015  133.0146  150.3043 C   0  0  0  0  0  0  0  0  0  0  0  0
  144.0189  132.6755  150.0970 C   0  0  0  0  0  0  0  0  0  0  0  0
  143.1750  133.1484  151.2903 C   0  0  0  0  0  0  0  0  0  0  0  0
  143.3532  134.6571  151.5547 C   0  0  1  0  0  0  0  0  0  0  0  0
  142.5042  135.1009  152.7572 C   0  0  0  0  0  0  0  0  0  0  0  0
  151.8507  139.6932  154.6434 N   0  0  0  0  0  0  0  0  0  0  0  0
  152.4551  139.7229  155.9058 O   0  0  0  0  0  0  0  0  0  0  0  0
  151.1436  139.1977  158.9389 H   0  0  0  0  0  0  0  0  0  0  0  0
  152.3913  140.3824  158.5474 H   0  0  0  0  0  0  0  0  0  0  0  0
  152.7397  138.6571  158.4152 H   0  0  0  0  0  0  0  0  0  0  0  0
  149.3700  138.9601  156.7379 H   0  0  0  0  0  0  0  0  0  0  0  0
  149.7514  139.6569  153.0018 H   0  0  0  0  0  0  0  0  0  0  0  0
  148.0437  139.1972  152.1330 H   0  0  0  0  0  0  0  0  0  0  0  0
  145.9011  137.9786  153.7548 H   0  0  0  0  0  0  0  0  0  0  0  0
  145.6288  138.9506  152.3290 H   0  0  0  0  0  0  0  0  0  0  0  0
  146.6911  137.1134  150.9272 H   0  0  0  0  0  0  0  0  0  0  0  0
  146.9118  136.1590  152.3852 H   0  0  0  0  0  0  0  0  0  0  0  0
  145.1980  134.5374  152.6701 H   0  0  0  0  0  0  0  0  0  0  0  0
  145.4089  135.0721  149.6577 H   0  0  0  0  0  0  0  0  0  0  0  0
  146.7482  134.7245  150.7201 H   0  0  0  0  0  0  0  0  0  0  0  0
  146.0794  132.7061  149.4326 H   0  0  0  0  0  0  0  0  0  0  0  0
  145.8921  132.4498  151.1518 H   0  0  0  0  0  0  0  0  0  0  0  0
  143.6587  133.1484  149.1826 H   0  0  0  0  0  0  0  0  0  0  0  0
  143.8982  131.6008  149.9584 H   0  0  0  0  0  0  0  0  0  0  0  0
  142.1242  132.9245  151.1031 H   0  0  0  0  0  0  0  0  0  0  0  0
  143.4571  132.5824  152.1792 H   0  0  0  0  0  0  0  0  0  0  0  0
  142.9911  135.1950  150.6768 H   0  0  0  0  0  0  0  0  0  0  0  0
  142.8273  134.6073  153.6741 H   0  0  0  0  0  0  0  0  0  0  0  0
  141.4515  134.8626  152.6039 H   0  0  0  0  0  0  0  0  0  0  0  0
  142.5741  136.1772  152.9169 H   0  0  0  0  0  0  0  0  0  0  0  0
  1  2  1  0  0  0  0
  1 21  1  0  0  0  0
  1 22  1  0  0  0  0
  1 23  1  0  0  0  0
  2 20  1  0  0  0  0
  2  3  2  0  0  0  0
  3  4  1  0  0  0  0
  3 24  1  0  0  0  0
  4  5  1  0  0  0  0
  4 19  2  0  0  0  0
  5  6  1  0  0  0  0
  5 25  1  0  0  0  0
  6  7  2  0  0  0  0
  6  8  1  0  0  0  0
  8  9  1  0  0  0  0
  8 26  1  0  0  0  0
  9 10  1  0  0  0  0
  9 27  1  0  0  0  0
  9 28  1  0  0  0  0
 10 11  1  0  0  0  0
 10 29  1  0  0  0  0
 10 30  1  0  0  0  0
 11 12  1  0  0  0  0
 12 17  1  0  0  0  0
 12 13  1  0  0  0  0
 12 31  1  0  0  0  0
 13 14  1  0  0  0  0
 13 32  1  0  0  0  0
 13 33  1  0  0  0  0
 14 15  1  0  0  0  0
 14 34  1  0  0  0  0
 14 35  1  0  0  0  0
 15 16  1  0  0  0  0
 15 36  1  0  0  0  0
 15 37  1  0  0  0  0
 16 17  1  0  0  0  0
 16 38  1  0  0  0  0
 16 39  1  0  0  0  0
 17 18  1  0  0  0  0
 17 40  1  0  0  0  0
 18 41  1  0  0  0  0
 18 42  1  0  0  0  0
 18 43  1  0  0  0  0
 19 20  1  0  0  0  0
M  END
> <s_m_source_file>
AV-unprocessed.smi

> <i_m_source_file_index>
2104

> <i_lp_mmshare_version>
43012

> <i_f3d_flags>
0

> <s_epik_input>
W0NIM11jMVtjSF1jKG5vMSlbTkhdQyg9TylbTkhdW0NIMl1bQ0gyXU9bQ0BASF0yW0NIMl1bQ0gyXVtDSDJdW0NIMl1bQ0BIXTJbQ0gzXQ==

> <s_epik_cmdline>
J2VwaWtfcHl0aG9uJywgJy1waCcsICc3LjAnLCAnLXRuJywgJzgnLCAnLW1hJywgJzIwMCcsICctbWV0YWxfYmluZGluZycsICctaW1hZScsICc8aW5maWxlLm1hZT4nLCAnLW9tYWUnLCAnPG91dGZpbGUubWFlPic=

> <r_lp_tautomer_probability>
1

> <r_epik_Ionization_Penalty>
2.94418e-05

> <r_epik_Ionization_Penalty_Charging>
0

> <r_epik_Ionization_Penalty_Neutral>
2.94418e-05

> <r_epik_State_Penalty>
-0

> <r_epik_Charging_Adjusted_Penalty>
0

> <i_epik_Tot_Q>
0

> <i_epik_Tot_abs_Q>
0

> <r_epik_Metal_State_Penalty>
0.0104148

> <b_epik_Metal_Only>
0

> <s_lp_Force_Field>
OPLS_2005

> <r_lp_Energy>
8.87971

> <b_lp_Chiralities_Consistent>
1

> <s_lp_Variant>
AV-unprocessed.smi:2104-1

> <Gold.Version>
5.8.1

> <Gold.Id.Protein>
6NUR|6NUR_protein|mol2

> <Gold.PLP.Fitness>
42.1726

> <Gold.PLP.PLP>
-30.9094

> <Gold.PLP.part.hbond>
-4.9562

> <Gold.PLP.part.metal>
0.0000

> <Gold.PLP.part.buried>
-1.9115

> <Gold.PLP.part.nonpolar>
-25.3033

> <Gold.PLP.part.repulsive>
0.4848

> <Gold.PLP.ligand.clash>
0.0000

> <Gold.PLP.ligand.torsion>
0.3786

> <Gold.PLP.Chemscore.Hbond>
3.9920

> <Gold.PLP.Chemscore.CHOScore>
0.0000

> <Gold.PLP.Chemscore.Metal>
0.0000

> <Gold.Chemscore.Hbonds>
donor molecule, donor type, donor heavy atom, donor atom, acceptor molecule, acceptor atom, score
      L1  H     5    25       P1  7957  1.00
      L1  H     8    26       P1  7957  1.00
      P1  H  7989  7998       L1    19  0.99
      P1  H  7997  8010       L1    20  1.00

> <Gold.PLP.Chemscore.Internal.Correction>
0.0445

> <Gold.Rescore>
     Score         DG    S(hbond)    S(metal)    S(lipo)     H(rot)  DE(clash)    DE(int)     intcor
     15.81     -19.50       3.00        0.00      72.47       1.75       2.01       1.68       ----

> <Gold.Chemscore.Fitness>
15.8105

> <Gold.Chemscore.DG>
-19.4994

> <Gold.Chemscore.ZeroCoef>
-5.4800

> <Gold.Chemscore.Hbond>
3.0019

> <Gold.Chemscore.Metal>
0.0000

> <Gold.Chemscore.Lipo>
72.4717

> <Gold.Chemscore.Internal_Hbond>
0.0000

> <Gold.Chemscore.DEClash>
2.0086

> <Gold.Chemscore.DEInternal>
1.6802

> <Gold.Chemscore.Rot>
1.7524

> <Gold.Chemscore.Internal.Correction>
   9.000000E+99

> <Gold.Chemscore.Hbonds>
donor molecule, donor type, donor heavy atom, donor atom, acceptor molecule, acceptor atom, score
      L1  H     5    25       P1  7957  0.99
      L1  H     8    26       P1  7957  0.93
      P1  H  7989  7998       L1    19  0.24
      P1  H  7997  8010       L1    20  0.98

> <Gold.Chemscore.Hbond.Weighted>
-10.0263

> <Gold.Chemscore.Metal.Weighted>
-0.0000

> <Gold.Chemscore.Lipo.Weighted>
-8.4792

> <Gold.Chemscore.Internal_Hbond.Weighted>
0.0000

> <Gold.Chemscore.DEClash.Weighted>
2.0086

> <Gold.Chemscore.DEInternal.Weighted>
1.6802

> <Gold.Chemscore.Rot.Weighted>
4.4861

> <Gold.Chemscore.Internal.Correction.Weighted>
   9.000000E+99

> <Gold.Protein.RotatedTorsions>
[ 6907 6896 6895 6894 ] final   -9.71 input  -60.11 | X-H torsion
[ 7974 7965 7964 7962 ] final  -59.72 input  175.53 | X-H torsion
[ 8008 7997 7996 7995 ] final   84.50 input   59.86 | X-H torsion
[ 10167 10162 10161 10158 ] final   75.35 input  -65.29 | X-H torsion
[ 10718 10713 10712 10709 ] final  105.34 input   66.30 | X-H torsion
[ 10763 10752 10751 10750 ] final   63.40 input  -60.55 | X-H torsion
[ 11005 11000 10999 10996 ] final  128.60 input  -57.11 | X-H torsion

> <Gold.Protein.ActiveResidues>
 VAL166  LYS551  ARG553  GLY616  TRP617  ASP618  TYR619  PRO620  LYS621  CYS622 
 ASP623  PHE694  ASN695  SER759  ASP760  ASP761  ALA762  ILE779  LEU786  VAL792 
 PHE793  MET794  SER795  GLU796  ALA797  LYS798  CYS799  TRP800  GLU811  SER814 

> <Gold.Protein.RotatedAtoms>
  151.4134  135.0988  159.9591 H   0  0  0  0  0  0  0  0  0  0  0  0  # atno 6907 bound_to 6896
  152.5012  133.8776  159.7340 H   0  0  0  0  0  0  0  0  0  0  0  0  # atno 6908 bound_to 6896
  150.9275  133.6748  159.2846 H   0  0  0  0  0  0  0  0  0  0  0  0  # atno 6909 bound_to 6896
  145.8241  140.8521  143.0117 H   0  0  0  0  0  0  0  0  0  0  0  0  # atno 7974 bound_to 7965
  155.9379  140.3410  155.6302 H   0  0  0  0  0  0  0  0  0  0  0  0  # atno 8008 bound_to 7997
  155.7077  140.0768  157.2403 H   0  0  0  0  0  0  0  0  0  0  0  0  # atno 8009 bound_to 7997
  154.4097  140.1628  156.2248 H   0  0  0  0  0  0  0  0  0  0  0  0  # atno 8010 bound_to 7997
  140.0039  144.5665  150.7714 H   0  0  0  0  0  0  0  0  0  0  0  0  # atno 10167 bound_to 10162
  157.6709  131.0825  150.5841 H   0  0  0  0  0  0  0  0  0  0  0  0  # atno 10718 bound_to 10713
  153.0016  135.5430  154.6346 H   0  0  0  0  0  0  0  0  0  0  0  0  # atno 10763 bound_to 10752
  154.5616  135.2834  155.0916 H   0  0  0  0  0  0  0  0  0  0  0  0  # atno 10764 bound_to 10752
  154.2117  135.6466  153.5170 H   0  0  0  0  0  0  0  0  0  0  0  0  # atno 10765 bound_to 10752
  139.9570  134.9611  156.9026 H   0  0  0  0  0  0  0  0  0  0  0  0  # atno 11005 bound_to 11000
  144.6745  140.0577  143.7477 LP  0  0  0  0  0  0  0  0  0  0  0  0  # atno 17320 bound_to 7965
  145.9642  139.2823  143.1137 LP  0  0  0  0  0  0  0  0  0  0  0  0  # atno 17321 bound_to 7965
  140.7408  143.2809  151.3601 LP  0  0  0  0  0  0  0  0  0  0  0  0  # atno 17342 bound_to 10162
  139.6252  144.0828  152.2427 LP  0  0  0  0  0  0  0  0  0  0  0  0  # atno 17343 bound_to 10162
  156.6142  130.4388  149.5847 LP  0  0  0  0  0  0  0  0  0  0  0  0  # atno 17370 bound_to 10713
  156.2406  130.6849  151.1552 LP  0  0  0  0  0  0  0  0  0  0  0  0  # atno 17371 bound_to 10713
  140.5587  134.0556  155.7392 LP  0  0  0  0  0  0  0  0  0  0  0  0  # atno 17394 bound_to 11000
  141.1242  133.9410  157.2668 LP  0  0  0  0  0  0  0  0  0  0  0  0  # atno 17395 bound_to 11000

$$$$
