#       Name:                AV-unprocessed.smi:1918
#       Creating user name   scv26
#       Creation time:       Fri Mar 27 09:51:46 2020


#       File generated by GOLD software.
#

@<TRIPOS>MOLECULE
AV-unprocessed.smi:1918
    38    40     1
SMALL
NO_CHARGES


@<TRIPOS>ATOM
      1 ****        -2.0300  -0.1876   1.7896 C.3            1 S1                 0.0000
      2 ****        -1.7120   0.3693   0.4426 C.2            1 S1                 0.0000
      3 ****        -2.0055   1.6273   0.0086 N.pl3          1 S1                 1.0000
      4 ****        -1.5533   1.7933  -1.3011 C.ar           1 S1                 0.0000
      5 ****        -1.6204   2.8883  -2.1569 C.ar           1 S1                 0.0000
      6 ****        -1.0585   2.7235  -3.4401 C.ar           1 S1                 0.0000
      7 ****        -0.4604   1.5073  -3.8294 C.ar           1 S1                 0.0000
      8 ****        -0.3979   0.4041  -2.9527 C.ar           1 S1                 0.0000
      9 ****        -0.9554   0.5760  -1.6860 C.ar           1 S1                 0.0000
     10 ****        -1.0709  -0.2704  -0.5780 N.pl3          1 S1                 0.0000
     11 ****        -0.5212  -1.6325  -0.6559 C.3            1 S1                 0.0000
     12 ****         1.0106  -1.6710  -0.4787 C.3            1 S1                 0.0000
     13 ****         1.4441  -2.9928  -0.7273 O.3            1 S1                 0.0000
     14 ****         1.4460  -1.1618   0.8909 C.ar           1 S1                 0.0000
     15 ****         1.3890  -2.0101   2.0196 C.ar           1 S1                 0.0000
     16 ****         1.7706  -1.5337   3.2886 C.ar           1 S1                 0.0000
     17 ****         2.2095  -0.2051   3.4392 C.ar           1 S1                 0.0000
     18 ****         2.5741   0.2540   4.6596 F              1 S1                 0.0000
     19 ****         2.2657   0.6471   2.3203 C.ar           1 S1                 0.0000
     20 ****         1.8851   0.1729   1.0500 C.ar           1 S1                 0.0000
     21 ****         1.9326   1.0117  -0.0131 F              1 S1                 0.0000
     22 ****        -2.6171   0.5248   2.3694 H              1 S1                 0.0000
     23 ****        -1.1118  -0.4028   2.3355 H              1 S1                 0.0000
     24 ****        -2.6032  -1.1096   1.6918 H              1 S1                 0.0000
     25 ****        -2.0780   3.8209  -1.8608 H              1 S1                 0.0000
     26 ****        -1.0871   3.5460  -4.1400 H              1 S1                 0.0000
     27 ****        -0.0407   1.4188  -4.8211 H              1 S1                 0.0000
     28 ****         0.0636  -0.5229  -3.2596 H              1 S1                 0.0000
     29 ****        -1.0104  -2.2396   0.1067 H              1 S1                 0.0000
     30 ****        -0.8122  -2.0564  -1.6181 H              1 S1                 0.0000
     31 ****         1.4789  -1.0562  -1.2475 H              1 S1                 0.0000
     32 ****         2.3892  -3.0056  -0.7201 H              1 S1                 0.0000
     33 ****         1.0448  -3.0290   1.9190 H              1 S1                 0.0000
     34 ****         1.7234  -2.1872   4.1473 H              1 S1                 0.0000
     35 ****         2.5986   1.6679   2.4373 H              1 S1                 0.0000
     36 ****        -2.4808   2.3215   0.5709 H              1 S1                 0.0000
     37 ****         1.1097  -3.2950  -1.6199 LP             1 S1                 0.0000
     38 ****         1.0933  -3.6021  -0.0162 LP             1 S1                 0.0000
@<TRIPOS>BOND
    1    1    2 1     
    2    1   22 1     
    3    1   23 1     
    4    1   24 1     
    5    2   10 1     
    6    2    3 2     
    7    3    4 1     
    8    3   36 1     
    9    4    9 ar    
   10    4    5 ar    
   11    5    6 ar    
   12    5   25 1     
   13    6    7 ar    
   14    6   26 1     
   15    7    8 ar    
   16    7   27 1     
   17    8    9 ar    
   18    8   28 1     
   19    9   10 1     
   20   10   11 1     
   21   11   12 1     
   22   11   29 1     
   23   11   30 1     
   24   12   13 1     
   25   12   14 1     
   26   12   31 1     
   27   13   32 1     
   28   14   20 ar    
   29   14   15 ar    
   30   15   16 ar    
   31   15   33 1     
   32   16   17 ar    
   33   16   34 1     
   34   17   18 1     
   35   17   19 ar    
   36   19   20 ar    
   37   19   35 1     
   38   20   21 1     
   39   13   37 1     
   40   13   38 1     
@<TRIPOS>SUBSTRUCTURE
      1 S1             1
@<TRIPOS>SET
LONE_PAIRS      STATIC     ATOMS    <user>   **** ""
2 37 38
DONOR_HYDROGENS      STATIC     ATOMS    <user>   **** ""
2 36 32
ATOM$BLUE        STATIC     ATOMS    COLORGROUP SYSTEM
2 37 38
ATOM$RED        STATIC     ATOMS    COLORGROUP SYSTEM
2 36 32
