AV-unprocessed.smi:2058|AV-procd|sdf|8344|dock2
  -GOLD-   2272011 13D 1   1.00000     0.00000
 Structure written by MMmdl.
 42 43  0  0  0  0  0  0  0  0  1 V2000
  144.5972  136.2045  153.9319 C   0  0  0  0  0  0  0  0  0  0  0  0
  145.4121  136.6275  152.6996 C   0  0  2  0  0  0  0  0  0  0  0  0
  145.4483  135.5586  151.5876 C   0  0  0  0  0  0  0  0  0  0  0  0
  145.4229  136.1454  150.3020 O   0  0  0  0  0  0  0  0  0  0  0  0
  146.7638  137.0212  153.0910 N   0  0  0  0  0  0  0  0  0  0  0  0
  147.0706  137.9175  154.0397 C   0  0  0  0  0  0  0  0  0  0  0  0
  146.2263  138.5022  154.7178 O   0  0  0  0  0  0  0  0  0  0  0  0
  148.4017  138.0713  154.1461 N   0  0  0  0  0  0  0  0  0  0  0  0
  149.1364  138.9354  155.0036 C   0  0  0  0  0  0  0  0  0  0  0  0
  150.5267  139.0335  154.8024 C   0  0  0  0  0  0  0  0  0  0  0  0
  151.2841  139.8909  155.6223 C   0  0  0  0  0  0  0  0  0  0  0  0
  150.6290  140.6400  156.6274 C   0  0  0  0  0  0  0  0  0  0  0  0
  151.3688  141.5036  157.4646 N   0  0  0  0  0  0  0  0  0  0  0  0
  151.7911  140.9276  158.7431 C   0  0  0  0  0  0  0  0  0  0  0  0
  152.9085  141.7656  159.3877 C   0  0  0  0  0  0  0  0  0  0  0  0
  152.4893  143.2372  159.5171 C   0  0  0  0  0  0  0  0  0  0  0  0
  152.0645  143.7844  158.1466 C   0  0  0  0  0  0  0  0  0  0  0  0
  150.9645  142.9114  157.5183 C   0  0  0  0  0  0  0  0  0  0  0  0
  149.2884  140.5592  156.8096 N   0  0  0  0  0  0  0  0  0  0  0  0
  148.5655  139.7348  156.0225 C   0  0  0  0  0  0  0  0  0  0  0  0
  143.5819  135.9241  153.6505 H   0  0  0  0  0  0  0  0  0  0  0  0
  144.5250  137.0209  154.6512 H   0  0  0  0  0  0  0  0  0  0  0  0
  145.0488  135.3535  154.4426 H   0  0  0  0  0  0  0  0  0  0  0  0
  144.9169  137.5079  152.2859 H   0  0  0  0  0  0  0  0  0  0  0  0
  146.3617  134.9695  151.6709 H   0  0  0  0  0  0  0  0  0  0  0  0
  144.6155  134.8612  151.6833 H   0  0  0  0  0  0  0  0  0  0  0  0
  145.0202  136.9974  150.3697 H   0  0  0  0  0  0  0  0  0  0  0  0
  147.5224  136.5895  152.5841 H   0  0  0  0  0  0  0  0  0  0  0  0
  148.9622  137.4699  153.5602 H   0  0  0  0  0  0  0  0  0  0  0  0
  151.0127  138.4589  154.0275 H   0  0  0  0  0  0  0  0  0  0  0  0
  152.3487  139.9755  155.4628 H   0  0  0  0  0  0  0  0  0  0  0  0
  150.9268  140.8896  159.4075 H   0  0  0  0  0  0  0  0  0  0  0  0
  152.1403  139.9023  158.6297 H   0  0  0  0  0  0  0  0  0  0  0  0
  153.1609  141.3606  160.3679 H   0  0  0  0  0  0  0  0  0  0  0  0
  153.8125  141.6952  158.7812 H   0  0  0  0  0  0  0  0  0  0  0  0
  151.6613  143.3242  160.2216 H   0  0  0  0  0  0  0  0  0  0  0  0
  153.3103  143.8293  159.9224 H   0  0  0  0  0  0  0  0  0  0  0  0
  151.7137  144.8117  158.2450 H   0  0  0  0  0  0  0  0  0  0  0  0
  152.9292  143.8144  157.4824 H   0  0  0  0  0  0  0  0  0  0  0  0
  150.7500  143.2802  156.5143 H   0  0  0  0  0  0  0  0  0  0  0  0
  150.0438  142.9972  158.0972 H   0  0  0  0  0  0  0  0  0  0  0  0
  147.5057  139.7473  156.2202 H   0  0  0  0  0  0  0  0  0  0  0  0
  1  2  1  0  0  0  0
  1 21  1  0  0  0  0
  1 22  1  0  0  0  0
  1 23  1  0  0  0  0
  2  3  1  0  0  0  0
  2  5  1  0  0  0  0
  2 24  1  0  0  0  0
  3  4  1  0  0  0  0
  3 25  1  0  0  0  0
  3 26  1  0  0  0  0
  4 27  1  0  0  0  0
  5  6  1  0  0  0  0
  5 28  1  0  0  0  0
  6  7  2  0  0  0  0
  6  8  1  0  0  0  0
  8  9  1  0  0  0  0
  8 29  1  0  0  0  0
  9 20  1  0  0  0  0
  9 10  2  0  0  0  0
 10 11  1  0  0  0  0
 10 30  1  0  0  0  0
 11 12  2  0  0  0  0
 11 31  1  0  0  0  0
 12 13  1  0  0  0  0
 12 19  1  0  0  0  0
 13 18  1  0  0  0  0
 13 14  1  0  0  0  0
 14 15  1  0  0  0  0
 14 32  1  0  0  0  0
 14 33  1  0  0  0  0
 15 16  1  0  0  0  0
 15 34  1  0  0  0  0
 15 35  1  0  0  0  0
 16 17  1  0  0  0  0
 16 36  1  0  0  0  0
 16 37  1  0  0  0  0
 17 18  1  0  0  0  0
 17 38  1  0  0  0  0
 17 39  1  0  0  0  0
 18 40  1  0  0  0  0
 18 41  1  0  0  0  0
 19 20  2  0  0  0  0
 20 42  1  0  0  0  0
M  END
> <s_m_source_file>
AV-unprocessed.smi

> <i_m_source_file_index>
2058

> <i_lp_mmshare_version>
43012

> <i_f3d_flags>
0

> <s_epik_input>
W09IXVtDSDJdW0NAQEhdKFtDSDNdKVtOSF1DKD1PKVtOSF1jMVtjSF1bY0hdYyhuW2NIXTEpTjJbQ0gyXVtDSDJdW0NIMl1bQ0gyXVtDSDJdMg==

> <s_epik_cmdline>
J2VwaWtfcHl0aG9uJywgJy1waCcsICc3LjAnLCAnLXRuJywgJzgnLCAnLW1hJywgJzIwMCcsICctbWV0YWxfYmluZGluZycsICctaW1hZScsICc8aW5maWxlLm1hZT4nLCAnLW9tYWUnLCAnPG91dGZpbGUubWFlPic=

> <r_lp_tautomer_probability>
1

> <r_epik_Ionization_Penalty>
0.104828

> <r_epik_Ionization_Penalty_Charging>
0

> <r_epik_Ionization_Penalty_Neutral>
0.104828

> <r_epik_State_Penalty>
0.0887547

> <r_epik_Charging_Adjusted_Penalty>
0.0887547

> <i_epik_Tot_Q>
0

> <i_epik_Tot_abs_Q>
0

> <r_epik_Metal_State_Penalty>
0.0759464

> <b_epik_Metal_Only>
0

> <s_lp_Force_Field>
OPLS_2005

> <r_lp_Energy>
20.4208

> <b_lp_Chiralities_Consistent>
1

> <s_lp_Variant>
AV-unprocessed.smi:2058-1

> <Gold.Version>
5.8.1

> <Gold.Id.Protein>
6NUR|6NUR_protein|mol2

> <Gold.PLP.Fitness>
44.0375

> <Gold.PLP.PLP>
-36.5415

> <Gold.PLP.part.hbond>
-4.0000

> <Gold.PLP.part.metal>
0.0000

> <Gold.PLP.part.buried>
-4.1258

> <Gold.PLP.part.nonpolar>
-29.7311

> <Gold.PLP.part.repulsive>
0.2478

> <Gold.PLP.ligand.clash>
0.0000

> <Gold.PLP.ligand.torsion>
0.8605

> <Gold.PLP.Chemscore.Hbond>
2.9199

> <Gold.PLP.Chemscore.CHOScore>
0.0000

> <Gold.PLP.Chemscore.Metal>
0.0000

> <Gold.Chemscore.Hbonds>
donor molecule, donor type, donor heavy atom, donor atom, acceptor molecule, acceptor atom, score
      L1  H     4    27       P1 10171  1.00
      L1  H     5    28       P1  7948  1.00
      L1  H     8    29       P1  7948  0.79

> <Gold.PLP.Chemscore.Internal.Correction>
0.4573

> <Gold.Rescore>
     Score         DG    S(hbond)    S(metal)    S(lipo)     H(rot)  DE(clash)    DE(int)     intcor
     17.70     -19.95       2.72        0.00      90.77       2.05       0.05       2.20       ----

> <Gold.Chemscore.Fitness>
17.6985

> <Gold.Chemscore.DG>
-19.9476

> <Gold.Chemscore.ZeroCoef>
-5.4800

> <Gold.Chemscore.Hbond>
2.7197

> <Gold.Chemscore.Metal>
0.0000

> <Gold.Chemscore.Lipo>
90.7669

> <Gold.Chemscore.Internal_Hbond>
0.0000

> <Gold.Chemscore.DEClash>
0.0541

> <Gold.Chemscore.DEInternal>
2.1950

> <Gold.Chemscore.Rot>
2.0453

> <Gold.Chemscore.Internal.Correction>
   9.000000E+99

> <Gold.Chemscore.Hbonds>
donor molecule, donor type, donor heavy atom, donor atom, acceptor molecule, acceptor atom, score
      L1  H     4    27       P1 10171  0.92
      L1  H     5    28       P1  7948  1.00
      L1  H     8    29       P1  7948  0.75

> <Gold.Chemscore.Hbond.Weighted>
-9.0839

> <Gold.Chemscore.Metal.Weighted>
-0.0000

> <Gold.Chemscore.Lipo.Weighted>
-10.6197

> <Gold.Chemscore.Internal_Hbond.Weighted>
0.0000

> <Gold.Chemscore.DEClash.Weighted>
0.0541

> <Gold.Chemscore.DEInternal.Weighted>
2.1950

> <Gold.Chemscore.Rot.Weighted>
5.2360

> <Gold.Chemscore.Internal.Correction.Weighted>
   9.000000E+99

> <Gold.Protein.RotatedTorsions>
[ 6907 6896 6895 6894 ] final  -32.26 input  -60.11 | X-H torsion
[ 7974 7965 7964 7962 ] final  -22.89 input  175.53 | X-H torsion
[ 8008 7997 7996 7995 ] final  152.95 input   59.86 | X-H torsion
[ 10167 10162 10161 10158 ] final -169.82 input  -65.29 | X-H torsion
[ 10718 10713 10712 10709 ] final   55.19 input   66.30 | X-H torsion
[ 10763 10752 10751 10750 ] final  -34.44 input  -60.55 | X-H torsion
[ 11005 11000 10999 10996 ] final -134.43 input  -57.11 | X-H torsion

> <Gold.Protein.ActiveResidues>
 VAL166  LYS551  ARG553  GLY616  TRP617  ASP618  TYR619  PRO620  LYS621  CYS622 
 ASP623  PHE694  ASN695  SER759  ASP760  ASP761  ALA762  ILE779  LEU786  VAL792 
 PHE793  MET794  SER795  GLU796  ALA797  LYS798  CYS799  TRP800  GLU811  SER814 

> <Gold.Protein.RotatedAtoms>
  151.0811  134.9859  159.8356 H   0  0  0  0  0  0  0  0  0  0  0  0  # atno 6907 bound_to 6896
  152.5419  134.2181  159.8786 H   0  0  0  0  0  0  0  0  0  0  0  0  # atno 6908 bound_to 6896
  151.2211  133.4458  159.2634 H   0  0  0  0  0  0  0  0  0  0  0  0  # atno 6909 bound_to 6896
  146.1649  140.4541  142.8556 H   0  0  0  0  0  0  0  0  0  0  0  0  # atno 7974 bound_to 7965
  156.2605  140.2007  156.6413 H   0  0  0  0  0  0  0  0  0  0  0  0  # atno 8008 bound_to 7997
  154.6607  140.0561  157.0084 H   0  0  0  0  0  0  0  0  0  0  0  0  # atno 8009 bound_to 7997
  155.1280  140.3231  155.4484 H   0  0  0  0  0  0  0  0  0  0  0  0  # atno 8010 bound_to 7997
  139.5899  144.1235  152.1622 H   0  0  0  0  0  0  0  0  0  0  0  0  # atno 10167 bound_to 10162
  157.5323  130.8639  149.8704 H   0  0  0  0  0  0  0  0  0  0  0  0  # atno 10718 bound_to 10713
  153.8468  135.6852  153.4797 H   0  0  0  0  0  0  0  0  0  0  0  0  # atno 10763 bound_to 10752
  153.1421  135.4653  154.9509 H   0  0  0  0  0  0  0  0  0  0  0  0  # atno 10764 bound_to 10752
  154.7820  135.3272  154.7916 H   0  0  0  0  0  0  0  0  0  0  0  0  # atno 10765 bound_to 10752
  140.8991  134.1713  157.4473 H   0  0  0  0  0  0  0  0  0  0  0  0  # atno 11005 bound_to 11000
  144.8078  140.6331  143.6435 LP  0  0  0  0  0  0  0  0  0  0  0  0  # atno 17320 bound_to 7965
  145.4494  139.1525  143.3927 LP  0  0  0  0  0  0  0  0  0  0  0  0  # atno 17321 bound_to 7965
  140.0807  144.5703  150.7124 LP  0  0  0  0  0  0  0  0  0  0  0  0  # atno 17342 bound_to 10162
  140.7164  143.2549  151.4419 LP  0  0  0  0  0  0  0  0  0  0  0  0  # atno 17343 bound_to 10162
  156.0432  130.3734  150.1384 LP  0  0  0  0  0  0  0  0  0  0  0  0  # atno 17370 bound_to 10713
  156.9568  130.9792  151.3487 LP  0  0  0  0  0  0  0  0  0  0  0  0  # atno 17371 bound_to 10713
  139.8739  134.9890  156.5440 LP  0  0  0  0  0  0  0  0  0  0  0  0  # atno 17394 bound_to 11000
  140.8252  133.8322  155.8933 LP  0  0  0  0  0  0  0  0  0  0  0  0  # atno 17395 bound_to 11000

$$$$
