#       Name:                AV-unprocessed.smi:3215
#       Creating user name   scv26
#       Creation time:       Fri Mar 27 18:12:40 2020


#       File generated by GOLD software.
#

@<TRIPOS>MOLECULE
AV-unprocessed.smi:3215
    41    42     1
SMALL
NO_CHARGES


@<TRIPOS>ATOM
      1 ****        -5.0628   4.6254   1.0794 C.3            1 S1                 0.0000
      2 ****        -4.3317   3.5712   0.2994 C.2            1 S1                 0.0000
      3 ****        -3.8754   3.6406  -1.0478 C.2            1 S1                 0.0000
      4 ****        -3.2627   2.5359  -1.4412 N.2            1 S1                 0.0000
      5 ****        -3.3067   1.7243  -0.3634 N.pl3          1 S1                 0.0000
      6 ****        -2.7164   0.4015  -0.4323 C.3            1 S1                 0.0000
      7 ****        -1.1874   0.4558  -0.3019 C.3            1 S1                 0.0000
      8 ****        -0.6481  -0.8947  -0.3430 N.3            1 S1                 0.0000
      9 ****         0.8157  -0.8717  -0.2284 C.3            1 S1                 0.0000
     10 ****         1.4497  -2.2716  -0.2831 C.2            1 S1                 0.0000
     11 ****         0.7378  -3.2643  -0.4469 O.2            1 S1                 0.0000
     12 ****         2.7883  -2.3680  -0.1421 N.am           1 S1                 0.0000
     13 ****         3.5128  -3.6373  -0.1547 C.3            1 S1                 0.0000
     14 ****         4.9304  -3.3088   0.3141 C.3            1 S1                 0.0000
     15 ****         5.1138  -1.8434  -0.0551 C.3            1 S1                 0.0000
     16 ****         3.7093  -1.2488   0.0560 C.3            1 S1                 0.0000
     17 ****        -3.9465   2.3232   0.7009 C.2            1 S1                 0.0000
     18 ****        -4.7073   5.6267   0.8356 H              1 S1                 0.0000
     19 ****        -4.9377   4.4946   2.1546 H              1 S1                 0.0000
     20 ****        -6.1334   4.6053   0.8750 H              1 S1                 0.0000
     21 ****        -3.9708   4.4576  -1.7479 H              1 S1                 0.0000
     22 ****        -3.1459  -0.2089   0.3634 H              1 S1                 0.0000
     23 ****        -3.0063  -0.0603  -1.3777 H              1 S1                 0.0000
     24 ****        -0.7613   1.0504  -1.1116 H              1 S1                 0.0000
     25 ****        -0.9109   0.9344   0.6389 H              1 S1                 0.0000
     26 ****        -1.0652  -1.4440   0.3949 H              1 S1                 0.0000
     27 ****         1.2286  -0.2702  -1.0395 H              1 S1                 0.0000
     28 ****         1.0955  -0.3950   0.7123 H              1 S1                 0.0000
     29 ****         3.0466  -4.3853   0.4886 H              1 S1                 0.0000
     30 ****         3.5263  -4.0272  -1.1735 H              1 S1                 0.0000
     31 ****         4.9932  -3.4215   1.3974 H              1 S1                 0.0000
     32 ****         5.6846  -3.9568  -0.1334 H              1 S1                 0.0000
     33 ****         5.8395  -1.3345   0.5799 H              1 S1                 0.0000
     34 ****         5.4623  -1.7688  -1.0860 H              1 S1                 0.0000
     35 ****         3.5639  -0.4555  -0.6782 H              1 S1                 0.0000
     36 ****         3.5517  -0.8282   1.0501 H              1 S1                 0.0000
     37 ****        -4.0726   1.8174   1.6469 H              1 S1                 0.0000
     38 ****        -2.8581   2.3451  -2.3356 LP             1 S1                 0.0000
     39 ****        -0.8721  -1.3151  -1.2222 LP             1 S1                 0.0000
     40 ****        -0.2519  -3.1593  -0.5442 LP             1 S1                 0.0000
     41 ****         1.1499  -4.1747  -0.4825 LP             1 S1                 0.0000
@<TRIPOS>BOND
    1    1    2 1     
    2    1   18 1     
    3    1   19 1     
    4    1   20 1     
    5    2   17 2     
    6    2    3 1     
    7    3    4 2     
    8    3   21 1     
    9    4    5 1     
   10    5    6 1     
   11    5   17 1     
   12    6    7 1     
   13    6   22 1     
   14    6   23 1     
   15    7    8 1     
   16    7   24 1     
   17    7   25 1     
   18    8    9 1     
   19    8   26 1     
   20    9   10 1     
   21    9   27 1     
   22    9   28 1     
   23   10   11 2     
   24   10   12 am    
   25   12   16 1     
   26   12   13 1     
   27   13   14 1     
   28   13   29 1     
   29   13   30 1     
   30   14   15 1     
   31   14   31 1     
   32   14   32 1     
   33   15   16 1     
   34   15   33 1     
   35   15   34 1     
   36   16   35 1     
   37   16   36 1     
   38   17   37 1     
   39    4   38 1     
   40    8   39 1     
   41   11   40 1     
   42   11   41 1     
@<TRIPOS>SUBSTRUCTURE
      1 S1             1
@<TRIPOS>SET
LONE_PAIRS      STATIC     ATOMS    <user>   **** ""
4 38 39 40 41
DONOR_HYDROGENS      STATIC     ATOMS    <user>   **** ""
1 26
ATOM$BLUE        STATIC     ATOMS    COLORGROUP SYSTEM
4 38 39 40 41
ATOM$RED        STATIC     ATOMS    COLORGROUP SYSTEM
1 26
