AV-unprocessed.smi:2242|AV-procd|sdf|9061|dock3
  -GOLD-   2272012263D 1   1.00000     0.00000
 Structure written by MMmdl.
 43 44  0  0  0  0  0  0  0  0  1 V2000
  144.4188  132.3952  149.7224 C   0  0  0  0  0  0  0  0  0  0  0  0
  145.3574  132.0673  150.8647 C   0  0  0  0  0  0  0  0  0  0  0  0
  145.4219  130.7659  151.3987 C   0  0  0  0  0  0  0  0  0  0  0  0
  146.3164  130.5268  152.4605 C   0  0  0  0  0  0  0  0  0  0  0  0
  146.4347  129.1529  153.0855 C   0  0  0  0  0  0  0  0  0  0  0  0
  147.1097  131.4848  152.9859 N   0  0  0  0  0  0  0  0  0  0  0  0
  147.0561  132.7415  152.4794 C   0  0  0  0  0  0  0  0  0  0  0  0
  147.8432  133.8199  152.9629 N   0  0  0  0  0  0  0  0  0  0  0  0
  148.3716  133.9798  154.1890 C   0  0  0  0  0  0  0  0  0  0  0  0
  148.2792  133.1731  155.1148 O   0  0  0  0  0  0  0  0  0  0  0  0
  149.0266  135.1473  154.2821 N   0  0  0  0  0  0  0  0  0  0  0  0
  149.7537  135.6384  155.4534 C   0  0  1  0  0  0  0  0  0  0  0  0
  150.6651  134.5019  155.9485 C   0  0  0  0  0  0  0  0  0  0  0  0
  150.5244  136.9441  155.1164 C   0  0  0  0  0  0  0  0  0  0  0  0
  151.4138  137.4255  156.2810 C   0  0  0  0  0  0  0  0  0  0  0  0
  152.1031  138.7579  155.9456 C   0  0  0  0  0  0  0  0  0  0  0  0
  151.1298  139.7434  155.6258 O   0  0  0  0  0  0  0  0  0  0  0  0
  150.3668  139.4042  154.4747 C   0  0  0  0  0  0  0  0  0  0  0  0
  149.5845  138.1046  154.7237 C   0  0  0  0  0  0  0  0  0  0  0  0
  146.1851  133.0664  151.4153 C   0  0  0  0  0  0  0  0  0  0  0  0
  143.8834  131.5088  149.3808 H   0  0  0  0  0  0  0  0  0  0  0  0
  144.9776  132.8017  148.8791 H   0  0  0  0  0  0  0  0  0  0  0  0
  143.6849  133.1368  150.0385 H   0  0  0  0  0  0  0  0  0  0  0  0
  144.8025  129.9727  151.0063 H   0  0  0  0  0  0  0  0  0  0  0  0
  145.8504  128.4159  152.5341 H   0  0  0  0  0  0  0  0  0  0  0  0
  146.0742  129.1742  154.1143 H   0  0  0  0  0  0  0  0  0  0  0  0
  147.4748  128.8254  153.0921 H   0  0  0  0  0  0  0  0  0  0  0  0
  148.0230  134.5571  152.2979 H   0  0  0  0  0  0  0  0  0  0  0  0
  149.0397  135.7425  153.4670 H   0  0  0  0  0  0  0  0  0  0  0  0
  149.0481  135.8571  156.2569 H   0  0  0  0  0  0  0  0  0  0  0  0
  151.1326  134.7435  156.9025 H   0  0  0  0  0  0  0  0  0  0  0  0
  151.4567  134.2844  155.2306 H   0  0  0  0  0  0  0  0  0  0  0  0
  150.0957  133.5842  156.1017 H   0  0  0  0  0  0  0  0  0  0  0  0
  151.1742  136.7412  154.2636 H   0  0  0  0  0  0  0  0  0  0  0  0
  150.8111  137.5466  157.1822 H   0  0  0  0  0  0  0  0  0  0  0  0
  152.1803  136.6872  156.5137 H   0  0  0  0  0  0  0  0  0  0  0  0
  152.6841  139.1032  156.8008 H   0  0  0  0  0  0  0  0  0  0  0  0
  152.8011  138.6366  155.1156 H   0  0  0  0  0  0  0  0  0  0  0  0
  149.6759  140.2198  154.2596 H   0  0  0  0  0  0  0  0  0  0  0  0
  151.0203  139.3050  153.6067 H   0  0  0  0  0  0  0  0  0  0  0  0
  149.0186  137.8588  153.8252 H   0  0  0  0  0  0  0  0  0  0  0  0
  148.8532  138.2700  155.5161 H   0  0  0  0  0  0  0  0  0  0  0  0
  146.1512  134.0722  151.0214 H   0  0  0  0  0  0  0  0  0  0  0  0
  1  2  1  0  0  0  0
  1 21  1  0  0  0  0
  1 22  1  0  0  0  0
  1 23  1  0  0  0  0
  2 20  1  0  0  0  0
  2  3  2  0  0  0  0
  3  4  1  0  0  0  0
  3 24  1  0  0  0  0
  4  5  1  0  0  0  0
  4  6  2  0  0  0  0
  5 25  1  0  0  0  0
  5 26  1  0  0  0  0
  5 27  1  0  0  0  0
  6  7  1  0  0  0  0
  7  8  1  0  0  0  0
  7 20  2  0  0  0  0
  8  9  1  0  0  0  0
  8 28  1  0  0  0  0
  9 10  2  0  0  0  0
  9 11  1  0  0  0  0
 11 12  1  0  0  0  0
 11 29  1  0  0  0  0
 12 13  1  0  0  0  0
 12 14  1  0  0  0  0
 12 30  1  0  0  0  0
 13 31  1  0  0  0  0
 13 32  1  0  0  0  0
 13 33  1  0  0  0  0
 14 19  1  0  0  0  0
 14 15  1  0  0  0  0
 14 34  1  0  0  0  0
 15 16  1  0  0  0  0
 15 35  1  0  0  0  0
 15 36  1  0  0  0  0
 16 17  1  0  0  0  0
 16 37  1  0  0  0  0
 16 38  1  0  0  0  0
 17 18  1  0  0  0  0
 18 19  1  0  0  0  0
 18 39  1  0  0  0  0
 18 40  1  0  0  0  0
 19 41  1  0  0  0  0
 19 42  1  0  0  0  0
 20 43  1  0  0  0  0
M  END
> <s_m_source_file>
AV-unprocessed.smi

> <i_m_source_file_index>
2242

> <i_lp_mmshare_version>
43012

> <i_f3d_flags>
0

> <s_epik_input>
W0NIM11jMVtjSF1jKFtDSDNdKW5jKFtjSF0xKVtOSF1DKD1PKVtOSF1bQ0BIXShbQ0gzXSlbQ0hdMltDSDJdW0NIMl1PW0NIMl1bQ0gyXTI=

> <s_epik_cmdline>
J2VwaWtfcHl0aG9uJywgJy1waCcsICc3LjAnLCAnLXRuJywgJzgnLCAnLW1hJywgJzIwMCcsICctbWV0YWxfYmluZGluZycsICctaW1hZScsICc8aW5maWxlLm1hZT4nLCAnLW9tYWUnLCAnPG91dGZpbGUubWFlPic=

> <r_lp_tautomer_probability>
1

> <r_epik_Ionization_Penalty>
0.000270135

> <r_epik_Ionization_Penalty_Charging>
0

> <r_epik_Ionization_Penalty_Neutral>
0.000270135

> <r_epik_State_Penalty>
-0

> <r_epik_Charging_Adjusted_Penalty>
0

> <i_epik_Tot_Q>
0

> <i_epik_Tot_abs_Q>
0

> <r_epik_Metal_State_Penalty>
-0

> <b_epik_Metal_Only>
0

> <s_lp_Force_Field>
OPLS_2005

> <r_lp_Energy>
14.0438

> <b_lp_Chiralities_Consistent>
1

> <s_lp_Variant>
AV-unprocessed.smi:2242-2

> <Gold.Version>
5.8.1

> <Gold.Id.Protein>
6NUR|6NUR_protein|mol2

> <Gold.PLP.Fitness>
40.7872

> <Gold.PLP.PLP>
-35.3040

> <Gold.PLP.part.hbond>
-2.0000

> <Gold.PLP.part.metal>
0.0000

> <Gold.PLP.part.buried>
-4.9050

> <Gold.PLP.part.nonpolar>
-28.4216

> <Gold.PLP.part.repulsive>
0.1606

> <Gold.PLP.ligand.clash>
0.0000

> <Gold.PLP.ligand.torsion>
0.2537

> <Gold.PLP.Chemscore.Hbond>
1.9920

> <Gold.PLP.Chemscore.CHOScore>
0.0000

> <Gold.PLP.Chemscore.Metal>
0.0000

> <Gold.Chemscore.Hbonds>
donor molecule, donor type, donor heavy atom, donor atom, acceptor molecule, acceptor atom, score
      L1  H     8    28       P1  7948  0.99
      L1  H    11    29       P1  7948  1.00

> <Gold.PLP.Chemscore.Internal.Correction>
0.0147

> <Gold.Rescore>
     Score         DG    S(hbond)    S(metal)    S(lipo)     H(rot)  DE(clash)    DE(int)     intcor
     14.61     -17.22       1.38        0.00      87.11       1.19       0.10       2.51       ----

> <Gold.Chemscore.Fitness>
14.6107

> <Gold.Chemscore.DG>
-17.2222

> <Gold.Chemscore.ZeroCoef>
-5.4800

> <Gold.Chemscore.Hbond>
1.3769

> <Gold.Chemscore.Metal>
0.0000

> <Gold.Chemscore.Lipo>
87.1130

> <Gold.Chemscore.Internal_Hbond>
0.0000

> <Gold.Chemscore.DEClash>
0.0974

> <Gold.Chemscore.DEInternal>
2.5142

> <Gold.Chemscore.Rot>
1.1909

> <Gold.Chemscore.Internal.Correction>
   9.000000E+99

> <Gold.Chemscore.Hbonds>
donor molecule, donor type, donor heavy atom, donor atom, acceptor molecule, acceptor atom, score
      L1  H     8    28       P1  7948  0.32
      L1  H    11    29       P1  7948  0.82

> <Gold.Chemscore.Hbond.Weighted>
-4.5987

> <Gold.Chemscore.Metal.Weighted>
-0.0000

> <Gold.Chemscore.Lipo.Weighted>
-10.1922

> <Gold.Chemscore.Internal_Hbond.Weighted>
0.0000

> <Gold.Chemscore.DEClash.Weighted>
0.0974

> <Gold.Chemscore.DEInternal.Weighted>
2.5142

> <Gold.Chemscore.Rot.Weighted>
3.0487

> <Gold.Chemscore.Internal.Correction.Weighted>
   9.000000E+99

> <Gold.Protein.RotatedTorsions>
[ 6907 6896 6895 6894 ] final  174.50 input  -60.11 | X-H torsion
[ 7974 7965 7964 7962 ] final  152.96 input  175.53 | X-H torsion
[ 8008 7997 7996 7995 ] final   25.62 input   59.86 | X-H torsion
[ 10167 10162 10161 10158 ] final   38.92 input  -65.29 | X-H torsion
[ 10718 10713 10712 10709 ] final  -98.13 input   66.30 | X-H torsion
[ 10763 10752 10751 10750 ] final   67.54 input  -60.55 | X-H torsion
[ 11005 11000 10999 10996 ] final -103.68 input  -57.11 | X-H torsion

> <Gold.Protein.ActiveResidues>
 VAL166  LYS551  ARG553  GLY616  TRP617  ASP618  TYR619  PRO620  LYS621  CYS622 
 ASP623  PHE694  ASN695  SER759  ASP760  ASP761  ALA762  ILE779  LEU786  VAL792 
 PHE793  MET794  SER795  GLU796  ALA797  LYS798  CYS799  TRP800  GLU811  SER814 

> <Gold.Protein.RotatedAtoms>
  151.7513  133.3327  159.3392 H   0  0  0  0  0  0  0  0  0  0  0  0  # atno 6907 bound_to 6896
  150.7534  134.6189  159.6135 H   0  0  0  0  0  0  0  0  0  0  0  0  # atno 6908 bound_to 6896
  152.3466  134.7064  160.0300 H   0  0  0  0  0  0  0  0  0  0  0  0  # atno 6909 bound_to 6896
  144.8186  139.6738  143.6110 H   0  0  0  0  0  0  0  0  0  0  0  0  # atno 7974 bound_to 7965
  155.0145  140.3140  155.4817 H   0  0  0  0  0  0  0  0  0  0  0  0  # atno 8008 bound_to 7997
  156.2903  140.2208  156.5203 H   0  0  0  0  0  0  0  0  0  0  0  0  # atno 8009 bound_to 7997
  154.7505  140.0466  157.0877 H   0  0  0  0  0  0  0  0  0  0  0  0  # atno 8010 bound_to 7997
  140.3890  144.1878  150.6130 H   0  0  0  0  0  0  0  0  0  0  0  0  # atno 10167 bound_to 10162
  156.0100  130.5225  150.6478 H   0  0  0  0  0  0  0  0  0  0  0  0  # atno 10718 bound_to 10713
  153.0191  135.5280  154.6995 H   0  0  0  0  0  0  0  0  0  0  0  0  # atno 10763 bound_to 10752
  154.6107  135.2878  155.0437 H   0  0  0  0  0  0  0  0  0  0  0  0  # atno 10764 bound_to 10752
  154.1459  135.6570  153.5005 H   0  0  0  0  0  0  0  0  0  0  0  0  # atno 10765 bound_to 10752
  141.1135  133.8660  157.1517 H   0  0  0  0  0  0  0  0  0  0  0  0  # atno 11005 bound_to 11000
  146.2491  139.6161  142.9439 LP  0  0  0  0  0  0  0  0  0  0  0  0  # atno 17320 bound_to 7965
  145.5156  141.0434  143.2464 LP  0  0  0  0  0  0  0  0  0  0  0  0  # atno 17321 bound_to 7965
  140.4859  143.2363  151.8888 LP  0  0  0  0  0  0  0  0  0  0  0  0  # atno 17342 bound_to 10162
  139.4790  144.5219  151.8790 LP  0  0  0  0  0  0  0  0  0  0  0  0  # atno 17343 bound_to 10162
  157.4245  131.0841  151.1099 LP  0  0  0  0  0  0  0  0  0  0  0  0  # atno 17370 bound_to 10713
  157.1690  130.6259  149.5634 LP  0  0  0  0  0  0  0  0  0  0  0  0  # atno 17371 bound_to 10713
  140.0042  135.0015  157.0256 LP  0  0  0  0  0  0  0  0  0  0  0  0  # atno 17394 bound_to 11000
  140.4711  134.1385  155.7203 LP  0  0  0  0  0  0  0  0  0  0  0  0  # atno 17395 bound_to 11000

$$$$
