AV-unprocessed.smi:34|AV-procd|sdf|219|dock4
  -GOLD-   2262015533D 1   1.00000     0.00000
 Structure written by MMmdl.
 55 59  0  0  0  0  0  0  0  0  1 V2000
  151.9291  139.8161  158.8211 O   0  0  0  0  0  0  0  0  0  0  0  0
  151.9216  140.7424  158.0097 C   0  0  0  0  0  0  0  0  0  0  0  0
  151.7265  140.5222  156.5872 N   0  0  0  0  0  0  0  0  0  0  0  0
  151.6205  139.3421  155.9322 C   0  0  0  0  0  0  0  0  0  0  0  0
  152.0702  139.1715  154.6607 N   0  0  0  0  0  0  0  0  0  0  0  0
  151.9377  137.9895  154.0515 C   0  0  0  0  0  0  0  0  0  0  0  0
  151.3947  136.8646  154.5223 N   0  0  0  0  0  0  0  0  0  0  0  0
  150.9403  137.0298  155.7978 C   0  0  0  0  0  0  0  0  0  0  0  0
  151.0115  138.2261  156.5633 C   0  0  0  0  0  0  0  0  0  0  0  0
  150.4389  138.0173  157.8113 N   0  0  0  0  0  0  0  0  0  0  0  0
  150.0534  136.7691  157.7792 C   0  0  0  0  0  0  0  0  0  0  0  0
  150.3313  136.0960  156.6071 N   0  0  0  0  0  0  0  0  0  0  0  0
  150.0271  134.6811  156.2194 C   0  0  2  0  0  0  0  0  0  0  0  0
  149.3161  134.6941  155.0170 O   0  0  0  0  0  0  0  0  0  0  0  0
  147.9250  134.6474  155.3027 C   0  0  1  0  0  0  0  0  0  0  0  0
  147.1405  134.2048  154.0627 C   0  0  0  0  0  0  0  0  0  0  0  0
  145.8573  134.8084  154.0791 O   0  0  0  0  0  0  0  0  0  0  0  0
  145.3321  135.3098  152.9449 C   0  0  0  0  0  0  0  0  0  0  0  0
  145.9596  135.4097  151.8886 O   0  0  0  0  0  0  0  0  0  0  0  0
  143.9111  135.7351  153.1022 C   0  0  0  0  0  0  0  0  0  0  0  0
  143.5993  137.1144  153.1293 C   0  0  0  0  0  0  0  0  0  0  0  0
  142.2670  137.5460  153.2788 C   0  0  0  0  0  0  0  0  0  0  0  0
  141.2298  136.6036  153.4026 C   0  0  0  0  0  0  0  0  0  0  0  0
  141.5265  135.2285  153.3754 C   0  0  0  0  0  0  0  0  0  0  0  0
  142.8585  134.7948  153.2264 C   0  0  0  0  0  0  0  0  0  0  0  0
  147.8734  133.6652  156.4691 C   0  0  2  0  0  0  0  0  0  0  0  0
  146.7596  133.8063  157.1889 F   0  0  0  0  0  0  0  0  0  0  0  0
  149.1112  134.0306  157.2764 C   0  0  1  0  0  0  0  0  0  0  0  0
  149.6873  132.8760  157.8514 O   0  0  0  0  0  0  0  0  0  0  0  0
  152.0236  142.1744  158.4481 C   0  0  0  0  0  0  0  0  0  0  0  0
  151.5620  143.2069  157.6011 C   0  0  0  0  0  0  0  0  0  0  0  0
  151.6351  144.5523  158.0113 C   0  0  0  0  0  0  0  0  0  0  0  0
  152.1637  144.8763  159.2749 C   0  0  0  0  0  0  0  0  0  0  0  0
  152.6156  143.8535  160.1299 C   0  0  0  0  0  0  0  0  0  0  0  0
  152.5427  142.5074  159.7209 C   0  0  0  0  0  0  0  0  0  0  0  0
  151.6754  141.3521  156.0146 H   0  0  0  0  0  0  0  0  0  0  0  0
  152.3220  137.9389  153.0433 H   0  0  0  0  0  0  0  0  0  0  0  0
  149.5540  136.3093  158.6196 H   0  0  0  0  0  0  0  0  0  0  0  0
  151.0046  134.2114  156.1025 H   0  0  0  0  0  0  0  0  0  0  0  0
  147.5978  135.6376  155.6247 H   0  0  0  0  0  0  0  0  0  0  0  0
  147.6713  134.5137  153.1610 H   0  0  0  0  0  0  0  0  0  0  0  0
  147.0496  133.1181  154.0339 H   0  0  0  0  0  0  0  0  0  0  0  0
  144.3786  137.8570  153.0362 H   0  0  0  0  0  0  0  0  0  0  0  0
  142.0412  138.6021  153.2979 H   0  0  0  0  0  0  0  0  0  0  0  0
  140.2083  136.9347  153.5179 H   0  0  0  0  0  0  0  0  0  0  0  0
  140.7312  134.5041  153.4691 H   0  0  0  0  0  0  0  0  0  0  0  0
  143.0512  133.7320  153.2087 H   0  0  0  0  0  0  0  0  0  0  0  0
  147.9206  132.6365  156.1076 H   0  0  0  0  0  0  0  0  0  0  0  0
  148.8635  134.7518  158.0571 H   0  0  0  0  0  0  0  0  0  0  0  0
  150.3294  132.5315  157.2490 H   0  0  0  0  0  0  0  0  0  0  0  0
  151.1519  142.9746  156.6286 H   0  0  0  0  0  0  0  0  0  0  0  0
  151.2834  145.3357  157.3562 H   0  0  0  0  0  0  0  0  0  0  0  0
  152.2186  145.9080  159.5897 H   0  0  0  0  0  0  0  0  0  0  0  0
  153.0153  144.1012  161.1023 H   0  0  0  0  0  0  0  0  0  0  0  0
  152.8852  141.7376  160.3971 H   0  0  0  0  0  0  0  0  0  0  0  0
  1  2  2  0  0  0  0
  2  3  1  0  0  0  0
  2 30  1  0  0  0  0
  3  4  1  0  0  0  0
  3 36  1  0  0  0  0
  4  9  1  0  0  0  0
  4  5  2  0  0  0  0
  5  6  1  0  0  0  0
  6  7  2  0  0  0  0
  6 37  1  0  0  0  0
  7  8  1  0  0  0  0
  8 12  1  0  0  0  0
  8  9  2  0  0  0  0
  9 10  1  0  0  0  0
 10 11  2  0  0  0  0
 11 12  1  0  0  0  0
 11 38  1  0  0  0  0
 12 13  1  0  0  0  0
 13 28  1  0  0  0  0
 13 14  1  0  0  0  0
 13 39  1  0  0  0  0
 14 15  1  0  0  0  0
 15 16  1  0  0  0  0
 15 26  1  0  0  0  0
 15 40  1  0  0  0  0
 16 17  1  0  0  0  0
 16 41  1  0  0  0  0
 16 42  1  0  0  0  0
 17 18  1  0  0  0  0
 18 19  2  0  0  0  0
 18 20  1  0  0  0  0
 20 25  1  0  0  0  0
 20 21  2  0  0  0  0
 21 22  1  0  0  0  0
 21 43  1  0  0  0  0
 22 23  2  0  0  0  0
 22 44  1  0  0  0  0
 23 24  1  0  0  0  0
 23 45  1  0  0  0  0
 24 25  2  0  0  0  0
 24 46  1  0  0  0  0
 25 47  1  0  0  0  0
 26 27  1  0  0  0  0
 26 28  1  0  0  0  0
 26 48  1  0  0  0  0
 28 29  1  0  0  0  0
 28 49  1  0  0  0  0
 29 50  1  0  0  0  0
 30 35  1  0  0  0  0
 30 31  2  0  0  0  0
 31 32  1  0  0  0  0
 31 51  1  0  0  0  0
 32 33  2  0  0  0  0
 32 52  1  0  0  0  0
 33 34  1  0  0  0  0
 33 53  1  0  0  0  0
 34 35  2  0  0  0  0
 34 54  1  0  0  0  0
 35 55  1  0  0  0  0
M  END
> <s_m_source_file>
AV-unprocessed.smi

> <i_m_source_file_index>
34

> <i_lp_mmshare_version>
43012

> <i_f3d_flags>
0

> <s_epik_input>
W2NIXTFbY0hdW2NIXVtjSF1bY0hdYzFDKD1PKVtOSF1jKG5bY0hdbjIpYyhjMjMpbltjSF1uM1tDQEBIXTRPW0NASF0oW0NAQEhdKEYpW0NASF00W09IXSlbQ0gyXU9DKD1PKWM1W2NIXVtjSF1bY0hdW2NIXVtjSF01

> <s_epik_cmdline>
J2VwaWtfcHl0aG9uJywgJy1waCcsICc3LjAnLCAnLXRuJywgJzgnLCAnLW1hJywgJzIwMCcsICctbWV0YWxfYmluZGluZycsICctaW1hZScsICc8aW5maWxlLm1hZT4nLCAnLW9tYWUnLCAnPG91dGZpbGUubWFlPic=

> <r_lp_tautomer_probability>
1

> <r_epik_Ionization_Penalty>
0.00257489

> <r_epik_Ionization_Penalty_Charging>
0

> <r_epik_Ionization_Penalty_Neutral>
0.00257489

> <r_epik_State_Penalty>
0.00519398

> <r_epik_Charging_Adjusted_Penalty>
0.00519398

> <i_epik_Tot_Q>
0

> <i_epik_Tot_abs_Q>
0

> <r_epik_Metal_State_Penalty>
0.335891

> <b_epik_Metal_Only>
0

> <s_epik_Chemistry_Notes>
This compound has an ester and may undergo hydrolysis at high or low pH. This compound contains an acetal/aminal-like group ( X-CH(R)-Y where X, Y are N, S, or O) that may be acid/base labile, releasing an aldehyde.

> <s_lp_Force_Field>
OPLS_2005

> <r_lp_Energy>
42.7442

> <b_lp_Chiralities_Consistent>
1

> <s_lp_Variant>
AV-unprocessed.smi:34-5

> <Gold.Version>
5.8.1

> <Gold.Id.Protein>
6NUR|6NUR_protein|mol2

> <Gold.PLP.Fitness>
55.8171

> <Gold.PLP.PLP>
-51.4491

> <Gold.PLP.part.hbond>
-2.9973

> <Gold.PLP.part.metal>
0.0000

> <Gold.PLP.part.buried>
-11.0114

> <Gold.PLP.part.nonpolar>
-39.8850

> <Gold.PLP.part.repulsive>
0.7860

> <Gold.PLP.ligand.clash>
0.0000

> <Gold.PLP.ligand.torsion>
2.6826

> <Gold.PLP.Chemscore.Hbond>
2.8798

> <Gold.PLP.Chemscore.CHOScore>
0.2666

> <Gold.PLP.Chemscore.Metal>
0.0000

> <Gold.Chemscore.Hbonds>
donor molecule, donor type, donor heavy atom, donor atom, acceptor molecule, acceptor atom, score
      P1  H  6896  6908       L1    29  0.95
      P1  H  7989  7998       L1     5  0.76
      P1  H 10752 10765       L1     7  0.95
      L1  C     6    37       P1  7949  0.34

> <Gold.PLP.Chemscore.Internal.Correction>
0.2939

> <Gold.Rescore>
     Score         DG    S(hbond)    S(metal)    S(lipo)     H(rot)  DE(clash)    DE(int)     intcor
      9.56     -16.30       1.46        0.00     110.22       2.72       0.39       6.35       ----

> <Gold.Chemscore.Fitness>
9.5621

> <Gold.Chemscore.DG>
-16.3004

> <Gold.Chemscore.ZeroCoef>
-5.4800

> <Gold.Chemscore.Hbond>
1.4647

> <Gold.Chemscore.Metal>
0.0000

> <Gold.Chemscore.Lipo>
110.2156

> <Gold.Chemscore.Internal_Hbond>
0.0000

> <Gold.Chemscore.DEClash>
0.3855

> <Gold.Chemscore.DEInternal>
6.3528

> <Gold.Chemscore.Rot>
2.7215

> <Gold.Chemscore.Internal.Correction>
   9.000000E+99

> <Gold.Chemscore.Hbonds>
donor molecule, donor type, donor heavy atom, donor atom, acceptor molecule, acceptor atom, score
      P1  H  6896  6908       L1    29  0.08
      P1  H  7989  7998       L1     5  0.53
      P1  H 10752 10765       L1     7  0.20

> <Gold.Chemscore.Hbond.Weighted>
-4.8922

> <Gold.Chemscore.Metal.Weighted>
-0.0000

> <Gold.Chemscore.Lipo.Weighted>
-12.8952

> <Gold.Chemscore.Internal_Hbond.Weighted>
0.0000

> <Gold.Chemscore.DEClash.Weighted>
0.3855

> <Gold.Chemscore.DEInternal.Weighted>
6.3528

> <Gold.Chemscore.Rot.Weighted>
6.9670

> <Gold.Chemscore.Internal.Correction.Weighted>
   9.000000E+99

> <Gold.Protein.RotatedTorsions>
[ 6907 6896 6895 6894 ] final  107.26 input  -60.11 | X-H torsion
[ 7974 7965 7964 7962 ] final    6.89 input  175.53 | X-H torsion
[ 8008 7997 7996 7995 ] final   30.91 input   59.86 | X-H torsion
[ 10167 10162 10161 10158 ] final  105.14 input  -65.29 | X-H torsion
[ 10718 10713 10712 10709 ] final  102.28 input   66.30 | X-H torsion
[ 10763 10752 10751 10750 ] final  162.90 input  -60.55 | X-H torsion
[ 11005 11000 10999 10996 ] final -121.53 input  -57.11 | X-H torsion

> <Gold.Protein.ActiveResidues>
 VAL166  LYS551  ARG553  GLY616  TRP617  ASP618  TYR619  PRO620  LYS621  CYS622 
 ASP623  PHE694  ASN695  SER759  ASP760  ASP761  ALA762  ILE779  LEU786  VAL792 
 PHE793  MET794  SER795  GLU796  ALA797  LYS798  CYS799  TRP800  GLU811  SER814 

> <Gold.Protein.RotatedAtoms>
  152.5161  133.9260  159.7557 H   0  0  0  0  0  0  0  0  0  0  0  0  # atno 6907 bound_to 6896
  150.9621  133.6426  159.2759 H   0  0  0  0  0  0  0  0  0  0  0  0  # atno 6908 bound_to 6896
  151.3667  135.0920  159.9505 H   0  0  0  0  0  0  0  0  0  0  0  0  # atno 6909 bound_to 6896
  146.2431  140.0165  142.8402 H   0  0  0  0  0  0  0  0  0  0  0  0  # atno 7974 bound_to 7965
  155.0980  140.3226  155.4555 H   0  0  0  0  0  0  0  0  0  0  0  0  # atno 8008 bound_to 7997
  156.2725  140.2066  156.6053 H   0  0  0  0  0  0  0  0  0  0  0  0  # atno 8009 bound_to 7997
  154.6852  140.0522  157.0294 H   0  0  0  0  0  0  0  0  0  0  0  0  # atno 8010 bound_to 7997
  139.7117  144.7076  151.1015 H   0  0  0  0  0  0  0  0  0  0  0  0  # atno 10167 bound_to 10162
  157.6806  131.0748  150.5379 H   0  0  0  0  0  0  0  0  0  0  0  0  # atno 10718 bound_to 10713
  154.2855  135.2762  155.2678 H   0  0  0  0  0  0  0  0  0  0  0  0  # atno 10763 bound_to 10752
  154.5180  135.5764  153.6661 H   0  0  0  0  0  0  0  0  0  0  0  0  # atno 10764 bound_to 10752
  152.9922  135.6197  154.3016 H   0  0  0  0  0  0  0  0  0  0  0  0  # atno 10765 bound_to 10752
  141.0063  134.0329  157.3472 H   0  0  0  0  0  0  0  0  0  0  0  0  # atno 11005 bound_to 11000
  145.1280  140.9501  143.4561 LP  0  0  0  0  0  0  0  0  0  0  0  0  # atno 17320 bound_to 7965
  145.0415  139.3256  143.5974 LP  0  0  0  0  0  0  0  0  0  0  0  0  # atno 17321 bound_to 7965
  140.7735  143.5283  150.9453 LP  0  0  0  0  0  0  0  0  0  0  0  0  # atno 17342 bound_to 10162
  139.8968  143.6885  152.3137 LP  0  0  0  0  0  0  0  0  0  0  0  0  # atno 17343 bound_to 10162
  156.5687  130.4274  149.6029 LP  0  0  0  0  0  0  0  0  0  0  0  0  # atno 17370 bound_to 10713
  156.2759  130.7043  151.1854 LP  0  0  0  0  0  0  0  0  0  0  0  0  # atno 17371 bound_to 10713
  139.9065  135.0180  156.7509 LP  0  0  0  0  0  0  0  0  0  0  0  0  # atno 17394 bound_to 11000
  140.6807  133.9477  155.7909 LP  0  0  0  0  0  0  0  0  0  0  0  0  # atno 17395 bound_to 11000

$$$$
