#       Name:                AV-unprocessed.smi:2002
#       Creating user name   scv26
#       Creation time:       Fri Mar 27 10:34:38 2020


#       File generated by GOLD software.
#

@<TRIPOS>MOLECULE
AV-unprocessed.smi:2002
    44    45     1
SMALL
NO_CHARGES


@<TRIPOS>ATOM
      1 ****        -4.4665  -2.6731   1.0048 C.3            1 S1                 0.0000
      2 ****        -2.9560  -2.4258   0.8960 C.3            1 S1                 0.0000
      3 ****        -2.5774  -1.0797   1.3850 N.4            1 S1                 1.0000
      4 ****        -2.7207  -0.8739   2.8466 C.3            1 S1                 0.0000
      5 ****        -1.4458  -0.1653   3.3222 C.3            1 S1                 0.0000
      6 ****        -0.8150   0.3910   2.0467 C.3            1 S1                 0.0000
      7 ****         0.6977   0.6582   2.1709 C.3            1 S1                 0.0000
      8 ****         1.2511   1.2722   0.9676 N.am           1 S1                 0.0000
      9 ****         1.7849   0.6087  -0.0685 C.2            1 S1                 0.0000
     10 ****         1.8508  -0.6197  -0.1266 O.2            1 S1                 0.0000
     11 ****         2.2226   1.4536  -1.0172 N.am           1 S1                 0.0000
     12 ****         2.8219   1.1218  -2.2590 C.2            1 S1                 0.0000
     13 ****         3.2426   2.1359  -3.1598 C.2            1 S1                 0.0000
     14 ****         3.7513   1.4235  -4.2092 C.2            1 S1                 0.0000
     15 ****         4.3689   1.8269  -5.5043 C.3            1 S1                 0.0000
     16 ****         3.6493   0.0879  -3.9689 O.3            1 S1                 0.0000
     17 ****         3.0509  -0.0993  -2.7174 N.2            1 S1                 0.0000
     18 ****        -1.2094  -0.6667   1.0134 C.3            1 S1                 0.0000
     19 ****        -4.7259  -3.6529   0.6033 H              1 S1                 0.0000
     20 ****        -5.0294  -1.9263   0.4438 H              1 S1                 0.0000
     21 ****        -4.8069  -2.6426   2.0401 H              1 S1                 0.0000
     22 ****        -2.4016  -3.1911   1.4412 H              1 S1                 0.0000
     23 ****        -2.6625  -2.5127  -0.1511 H              1 S1                 0.0000
     24 ****        -3.6012  -0.2562   3.0256 H              1 S1                 0.0000
     25 ****        -2.8596  -1.8117   3.3866 H              1 S1                 0.0000
     26 ****        -1.6480   0.6089   4.0630 H              1 S1                 0.0000
     27 ****        -0.7764  -0.8945   3.7813 H              1 S1                 0.0000
     28 ****        -1.3229   1.3242   1.7966 H              1 S1                 0.0000
     29 ****         0.8773   1.3435   2.9996 H              1 S1                 0.0000
     30 ****         1.2340  -0.2604   2.4160 H              1 S1                 0.0000
     31 ****         1.2410   2.2812   0.9291 H              1 S1                 0.0000
     32 ****         2.1126   2.4401  -0.8344 H              1 S1                 0.0000
     33 ****         3.1835   3.2093  -3.0566 H              1 S1                 0.0000
     34 ****         4.0120   2.8086  -5.8161 H              1 S1                 0.0000
     35 ****         4.1236   1.1139  -6.2918 H              1 S1                 0.0000
     36 ****         5.4543   1.8735  -5.4152 H              1 S1                 0.0000
     37 ****        -0.5373  -1.5241   1.0826 H              1 S1                 0.0000
     38 ****        -1.1733  -0.2909  -0.0097 H              1 S1                 0.0000
     39 ****        -3.1962  -0.4155   0.9422 H              1 S1                 0.0000
     40 ****         1.4951  -1.1756   0.6247 LP             1 S1                 0.0000
     41 ****         2.2601  -1.0613  -0.9250 LP             1 S1                 0.0000
     42 ****         4.5602  -0.3248  -3.9713 LP             1 S1                 0.0000
     43 ****         3.0879  -0.3395  -4.6775 LP             1 S1                 0.0000
     44 ****         2.8417  -0.9673  -2.2669 LP             1 S1                 0.0000
@<TRIPOS>BOND
    1    1    2 1     
    2    1   19 1     
    3    1   20 1     
    4    1   21 1     
    5    2    3 1     
    6    2   22 1     
    7    2   23 1     
    8    3   18 1     
    9    3    4 1     
   10    3   39 1     
   11    4    5 1     
   12    4   24 1     
   13    4   25 1     
   14    5    6 1     
   15    5   26 1     
   16    5   27 1     
   17    6    7 1     
   18    6   18 1     
   19    6   28 1     
   20    7    8 1     
   21    7   29 1     
   22    7   30 1     
   23    8    9 am    
   24    8   31 1     
   25    9   10 2     
   26    9   11 am    
   27   11   12 1     
   28   11   32 1     
   29   12   17 2     
   30   12   13 1     
   31   13   14 2     
   32   13   33 1     
   33   14   15 1     
   34   14   16 1     
   35   15   34 1     
   36   15   35 1     
   37   15   36 1     
   38   16   17 1     
   39   18   37 1     
   40   18   38 1     
   41   10   40 1     
   42   10   41 1     
   43   16   42 1     
   44   16   43 1     
   45   17   44 1     
@<TRIPOS>SUBSTRUCTURE
      1 S1             1
@<TRIPOS>SET
LONE_PAIRS      STATIC     ATOMS    <user>   **** ""
5 40 41 42 43 44
DONOR_HYDROGENS      STATIC     ATOMS    <user>   **** ""
3 39 31 32
ATOM$BLUE        STATIC     ATOMS    COLORGROUP SYSTEM
5 40 41 42 43 44
ATOM$RED        STATIC     ATOMS    COLORGROUP SYSTEM
3 39 31 32
