AV-unprocessed.smi:856|AV-procd|sdf|3960|dock6
  -GOLD-   22720 1433D 1   1.00000     0.00000
 Structure written by MMmdl.
 42 44  0  0  0  0  0  0  0  0  1 V2000
  153.5924  140.6584  160.6388 C   0  0  0  0  0  0  0  0  0  0  0  0
  152.6832  140.9591  159.5167 N   0  0  0  0  0  0  0  0  0  0  0  0
  152.7465  140.1653  158.4015 C   0  0  0  0  0  0  0  0  0  0  0  0
  153.5223  139.2203  158.2530 O   0  0  0  0  0  0  0  0  0  0  0  0
  151.7894  140.5369  157.3540 C   0  0  0  0  0  0  0  0  0  0  0  0
  150.9388  141.5850  157.4717 C   0  0  0  0  0  0  0  0  0  0  0  0
  150.1478  141.7261  156.3372 N   0  0  0  0  0  0  0  0  0  0  0  0
  150.5772  140.7214  155.5724 C   0  0  0  0  0  0  0  0  0  0  0  0
  151.5552  139.9610  156.1055 N   0  0  0  0  0  0  0  0  0  0  0  0
  152.1877  138.8111  155.4771 C   0  0  0  0  0  0  0  0  0  0  0  0
  151.1736  137.8837  154.7754 C   0  0  1  0  0  0  0  0  0  0  0  0
  151.7766  136.6985  154.2951 O   0  0  0  0  0  0  0  0  0  0  0  0
  149.9778  137.5031  155.6622 C   0  0  0  0  0  0  0  0  0  0  0  0
  150.4466  136.8694  156.8409 O   0  0  0  0  0  0  0  0  0  0  0  0
  149.6148  135.8054  157.2727 C   0  0  0  0  0  0  0  0  0  0  0  0
  149.9497  134.6018  156.4494 C   0  0  0  0  0  0  0  0  0  0  0  0
  149.9204  134.3580  155.1039 C   0  0  0  0  0  0  0  0  0  0  0  0
  150.3621  133.0176  154.9260 C   0  0  0  0  0  0  0  0  0  0  0  0
  150.6298  132.5403  156.1771 C   0  0  0  0  0  0  0  0  0  0  0  0
  150.3844  133.4926  157.1168 O   0  0  0  0  0  0  0  0  0  0  0  0
  150.9651  142.3522  158.6629 N   0  0  0  0  0  0  0  0  0  0  0  0
  150.0341  143.4813  158.7521 C   0  0  0  0  0  0  0  0  0  0  0  0
  151.8301  142.0374  159.6833 C   0  0  0  0  0  0  0  0  0  0  0  0
  151.8453  142.7016  160.7233 O   0  0  0  0  0  0  0  0  0  0  0  0
  154.2352  139.7902  160.4898 H   0  0  0  0  0  0  0  0  0  0  0  0
  153.0228  140.4655  161.5495 H   0  0  0  0  0  0  0  0  0  0  0  0
  154.2533  141.5053  160.8301 H   0  0  0  0  0  0  0  0  0  0  0  0
  150.1662  140.5318  154.5915 H   0  0  0  0  0  0  0  0  0  0  0  0
  152.9545  139.1595  154.7867 H   0  0  0  0  0  0  0  0  0  0  0  0
  152.7189  138.2527  156.2489 H   0  0  0  0  0  0  0  0  0  0  0  0
  150.7884  138.4013  153.8960 H   0  0  0  0  0  0  0  0  0  0  0  0
  151.4529  136.5333  153.4221 H   0  0  0  0  0  0  0  0  0  0  0  0
  149.4279  138.4043  155.9374 H   0  0  0  0  0  0  0  0  0  0  0  0
  149.2861  136.8550  155.1211 H   0  0  0  0  0  0  0  0  0  0  0  0
  149.7818  135.5968  158.3304 H   0  0  0  0  0  0  0  0  0  0  0  0
  148.5636  136.0657  157.1414 H   0  0  0  0  0  0  0  0  0  0  0  0
  149.6187  135.0599  154.3406 H   0  0  0  0  0  0  0  0  0  0  0  0
  150.4711  132.4719  154.0005 H   0  0  0  0  0  0  0  0  0  0  0  0
  150.9847  131.5950  156.5606 H   0  0  0  0  0  0  0  0  0  0  0  0
  150.0806  144.0322  159.6919 H   0  0  0  0  0  0  0  0  0  0  0  0
  149.0089  143.1284  158.6351 H   0  0  0  0  0  0  0  0  0  0  0  0
  150.2361  144.1922  157.9501 H   0  0  0  0  0  0  0  0  0  0  0  0
  1  2  1  0  0  0  0
  1 25  1  0  0  0  0
  1 26  1  0  0  0  0
  1 27  1  0  0  0  0
  2 23  1  0  0  0  0
  2  3  1  0  0  0  0
  3  4  2  0  0  0  0
  3  5  1  0  0  0  0
  5  9  1  0  0  0  0
  5  6  2  0  0  0  0
  6  7  1  0  0  0  0
  6 21  1  0  0  0  0
  7  8  2  0  0  0  0
  8  9  1  0  0  0  0
  8 28  1  0  0  0  0
  9 10  1  0  0  0  0
 10 11  1  0  0  0  0
 10 29  1  0  0  0  0
 10 30  1  0  0  0  0
 11 12  1  0  0  0  0
 11 13  1  0  0  0  0
 11 31  1  0  0  0  0
 12 32  1  0  0  0  0
 13 14  1  0  0  0  0
 13 33  1  0  0  0  0
 13 34  1  0  0  0  0
 14 15  1  0  0  0  0
 15 16  1  0  0  0  0
 15 35  1  0  0  0  0
 15 36  1  0  0  0  0
 16 20  1  0  0  0  0
 16 17  2  0  0  0  0
 17 18  1  0  0  0  0
 17 37  1  0  0  0  0
 18 19  2  0  0  0  0
 18 38  1  0  0  0  0
 19 20  1  0  0  0  0
 19 39  1  0  0  0  0
 21 22  1  0  0  0  0
 21 23  1  0  0  0  0
 22 40  1  0  0  0  0
 22 41  1  0  0  0  0
 22 42  1  0  0  0  0
 23 24  2  0  0  0  0
M  END
> <s_m_source_file>
AV-unprocessed.smi

> <i_m_source_file_index>
856

> <i_lp_mmshare_version>
43012

> <i_f3d_flags>
0

> <s_epik_input>
Tz1jMW4oW0NIM10pYyg9TyluKFtDSDNdKWMoYzEyKW5bY0hdbjJbQ0gyXVtDQEhdKFtPSF0pW0NIMl1PW0NIMl1jM1tjSF1bY0hdW2NIXW8z

> <s_epik_cmdline>
J2VwaWtfcHl0aG9uJywgJy1waCcsICc3LjAnLCAnLXRuJywgJzgnLCAnLW1hJywgJzIwMCcsICctbWV0YWxfYmluZGluZycsICctaW1hZScsICc8aW5maWxlLm1hZT4nLCAnLW9tYWUnLCAnPG91dGZpbGUubWFlPic=

> <r_lp_tautomer_probability>
1

> <r_epik_Ionization_Penalty>
1.33189e-06

> <r_epik_Ionization_Penalty_Charging>
3.64616e-09

> <r_epik_Ionization_Penalty_Neutral>
1.32824e-06

> <r_epik_State_Penalty>
-0

> <r_epik_Charging_Adjusted_Penalty>
3.64616e-09

> <i_epik_Tot_Q>
0

> <i_epik_Tot_abs_Q>
0

> <r_epik_Metal_State_Penalty>
-0

> <b_epik_Metal_Only>
0

> <s_lp_Force_Field>
OPLS_2005

> <r_lp_Energy>
33.5774

> <b_lp_Chiralities_Consistent>
1

> <s_lp_Variant>
AV-unprocessed.smi:856-2

> <Gold.Version>
5.8.1

> <Gold.Id.Protein>
6NUR|6NUR_protein|mol2

> <Gold.PLP.Fitness>
50.9844

> <Gold.PLP.PLP>
-40.3706

> <Gold.PLP.part.hbond>
-4.2213

> <Gold.PLP.part.metal>
0.0000

> <Gold.PLP.part.buried>
-6.0270

> <Gold.PLP.part.nonpolar>
-30.8601

> <Gold.PLP.part.repulsive>
0.1425

> <Gold.PLP.ligand.clash>
0.0000

> <Gold.PLP.ligand.torsion>
0.6388

> <Gold.PLP.Chemscore.Hbond>
3.9280

> <Gold.PLP.Chemscore.CHOScore>
0.0000

> <Gold.PLP.Chemscore.Metal>
0.0000

> <Gold.Chemscore.Hbonds>
donor molecule, donor type, donor heavy atom, donor atom, acceptor molecule, acceptor atom, score
      L1  H    12    32       P1  7949  1.00
      P1  H  6896  6909       L1    20  0.58
      P1  H  7997  8008       L1     4  0.95
      P1  H 10752 10765       L1    12  1.00

> <Gold.PLP.Chemscore.Internal.Correction>
0.1074

> <Gold.Rescore>
     Score         DG    S(hbond)    S(metal)    S(lipo)     H(rot)  DE(clash)    DE(int)     intcor
     14.90     -15.47       3.32        0.00      59.64       3.16       0.07       0.50       ----

> <Gold.Chemscore.Fitness>
14.8978

> <Gold.Chemscore.DG>
-15.4683

> <Gold.Chemscore.ZeroCoef>
-5.4800

> <Gold.Chemscore.Hbond>
3.3233

> <Gold.Chemscore.Metal>
0.0000

> <Gold.Chemscore.Lipo>
59.6401

> <Gold.Chemscore.Internal_Hbond>
0.0000

> <Gold.Chemscore.DEClash>
0.0679

> <Gold.Chemscore.DEInternal>
0.5027

> <Gold.Chemscore.Rot>
3.1599

> <Gold.Chemscore.Internal.Correction>
   9.000000E+99

> <Gold.Chemscore.Hbonds>
donor molecule, donor type, donor heavy atom, donor atom, acceptor molecule, acceptor atom, score
      L1  H    12    32       P1  7949  0.77
      P1  H  6896  6909       L1    20  0.55
      P1  H  7997  8008       L1     4  0.22
      P1  H 10752 10765       L1    12  0.25

> <Gold.Chemscore.Hbond.Weighted>
-11.0997

> <Gold.Chemscore.Metal.Weighted>
-0.0000

> <Gold.Chemscore.Lipo.Weighted>
-6.9779

> <Gold.Chemscore.Internal_Hbond.Weighted>
0.0000

> <Gold.Chemscore.DEClash.Weighted>
0.0679

> <Gold.Chemscore.DEInternal.Weighted>
0.5027

> <Gold.Chemscore.Rot.Weighted>
8.0893

> <Gold.Chemscore.Internal.Correction.Weighted>
   9.000000E+99

> <Gold.Protein.RotatedTorsions>
[ 6907 6896 6895 6894 ] final  -17.54 input  -60.11 | X-H torsion
[ 7974 7965 7964 7962 ] final  122.67 input  175.53 | X-H torsion
[ 8008 7997 7996 7995 ] final  -95.60 input   59.86 | X-H torsion
[ 10167 10162 10161 10158 ] final  145.94 input  -65.29 | X-H torsion
[ 10718 10713 10712 10709 ] final  -74.78 input   66.30 | X-H torsion
[ 10763 10752 10751 10750 ] final  165.79 input  -60.55 | X-H torsion
[ 11005 11000 10999 10996 ] final   85.42 input  -57.11 | X-H torsion

> <Gold.Protein.ActiveResidues>
 VAL166  LYS551  ARG553  GLY616  TRP617  ASP618  TYR619  PRO620  LYS621  CYS622 
 ASP623  PHE694  ASN695  SER759  ASP760  ASP761  ALA762  ILE779  LEU786  VAL792 
 PHE793  MET794  SER795  GLU796  ALA797  LYS798  CYS799  TRP800  GLU811  SER814 

> <Gold.Protein.RotatedAtoms>
  151.2917  135.0744  159.9206 H   0  0  0  0  0  0  0  0  0  0  0  0  # atno 6907 bound_to 6896
  152.5315  133.9924  159.7867 H   0  0  0  0  0  0  0  0  0  0  0  0  # atno 6908 bound_to 6896
  151.0196  133.5838  159.2703 H   0  0  0  0  0  0  0  0  0  0  0  0  # atno 6909 bound_to 6896
  145.1049  139.3493  143.4793 H   0  0  0  0  0  0  0  0  0  0  0  0  # atno 7974 bound_to 7965
  154.7635  140.0478  157.0992 H   0  0  0  0  0  0  0  0  0  0  0  0  # atno 8008 bound_to 7997
  154.9909  140.3113  155.4887 H   0  0  0  0  0  0  0  0  0  0  0  0  # atno 8009 bound_to 7997
  156.2908  140.2219  156.5013 H   0  0  0  0  0  0  0  0  0  0  0  0  # atno 8010 bound_to 7997
  139.4916  144.5866  151.6766 H   0  0  0  0  0  0  0  0  0  0  0  0  # atno 10167 bound_to 10162
  156.0230  130.4425  150.2944 H   0  0  0  0  0  0  0  0  0  0  0  0  # atno 10718 bound_to 10713
  154.3294  135.2755  155.2480 H   0  0  0  0  0  0  0  0  0  0  0  0  # atno 10763 bound_to 10752
  154.4798  135.5861  153.6385 H   0  0  0  0  0  0  0  0  0  0  0  0  # atno 10764 bound_to 10752
  152.9868  135.6108  154.3485 H   0  0  0  0  0  0  0  0  0  0  0  0  # atno 10765 bound_to 10752
  139.8972  134.8285  156.2579 H   0  0  0  0  0  0  0  0  0  0  0  0  # atno 11005 bound_to 11000
  146.3528  140.0942  142.8611 LP  0  0  0  0  0  0  0  0  0  0  0  0  # atno 17320 bound_to 7965
  145.0913  140.9286  143.4767 LP  0  0  0  0  0  0  0  0  0  0  0  0  # atno 17321 bound_to 7965
  140.5483  144.0467  150.6116 LP  0  0  0  0  0  0  0  0  0  0  0  0  # atno 17342 bound_to 10162
  140.3512  143.2962  152.0485 LP  0  0  0  0  0  0  0  0  0  0  0  0  # atno 17343 bound_to 10162
  157.1047  131.0205  151.3071 LP  0  0  0  0  0  0  0  0  0  0  0  0  # atno 17370 bound_to 10713
  157.4752  130.7732  149.7361 LP  0  0  0  0  0  0  0  0  0  0  0  0  # atno 17371 bound_to 10713
  141.0181  133.7057  156.1223 LP  0  0  0  0  0  0  0  0  0  0  0  0  # atno 17394 bound_to 11000
  140.7272  134.4294  157.5569 LP  0  0  0  0  0  0  0  0  0  0  0  0  # atno 17395 bound_to 11000

$$$$
