#       Name:                AV-unprocessed.smi:1680
#       Creating user name   scv26
#       Creation time:       Fri Mar 27 07:48:50 2020


#       File generated by GOLD software.
#

@<TRIPOS>MOLECULE
AV-unprocessed.smi:1680
    45    46     1
SMALL
NO_CHARGES


@<TRIPOS>ATOM
      1 ****        -4.2793   3.9160  -0.1278 C.3            1 S1                 0.0000
      2 ****        -2.7848   4.1698  -0.3369 C.2            1 S1                 0.0000
      3 ****        -2.3148   5.2301   0.0753 O.2            1 S1                 0.0000
      4 ****        -2.0330   3.2311  -0.9606 N.am           1 S1                 0.0000
      5 ****        -2.5037   1.9127  -1.3959 C.3            1 S1                 0.0000
      6 ****        -1.8219   0.8305  -0.5390 C.3            1 S1                 0.0000
      7 ****        -0.3389   0.9443  -0.5919 N.4            1 S1                 1.0000
      8 ****         0.3302  -0.1013   0.2220 C.3            1 S1                 0.0000
      9 ****         1.7842  -0.3554  -0.2219 C.3            1 S1                 0.0000
     10 ****         2.4011  -1.4291   0.5489 N.am           1 S1                 0.0000
     11 ****         2.1888  -2.7371   0.3431 C.2            1 S1                 0.0000
     12 ****         1.4344  -3.1681  -0.5295 O.2            1 S1                 0.0000
     13 ****         2.8942  -3.4897   1.2057 N.am           1 S1                 0.0000
     14 ****         2.9205  -4.9051   1.3198 C.2            1 S1                 0.0000
     15 ****         2.2235  -5.7291   0.5218 N.2            1 S1                 0.0000
     16 ****         2.4245  -7.0634   0.8506 N.2            1 S1                 0.0000
     17 ****         3.2642  -7.1930   1.8817 C.2            1 S1                 0.0000
     18 ****         3.8927  -5.6975   2.5513 S.3            1 S1                 0.0000
     19 ****         0.1428   2.3229  -0.2979 C.3            1 S1                 0.0000
     20 ****        -0.5876   3.3718  -1.1564 C.3            1 S1                 0.0000
     21 ****        -4.4402   3.0268   0.4827 H              1 S1                 0.0000
     22 ****        -4.7873   3.7878  -1.0841 H              1 S1                 0.0000
     23 ****        -4.7441   4.7594   0.3844 H              1 S1                 0.0000
     24 ****        -3.5850   1.7934  -1.3448 H              1 S1                 0.0000
     25 ****        -2.2450   1.7732  -2.4465 H              1 S1                 0.0000
     26 ****        -2.1539   0.9158   0.4971 H              1 S1                 0.0000
     27 ****        -2.1266  -0.1560  -0.8906 H              1 S1                 0.0000
     28 ****         0.2895   0.1686   1.2785 H              1 S1                 0.0000
     29 ****        -0.2295  -1.0323   0.1214 H              1 S1                 0.0000
     30 ****         1.8239  -0.5925  -1.2865 H              1 S1                 0.0000
     31 ****         2.3950   0.5349  -0.0785 H              1 S1                 0.0000
     32 ****         3.0381  -1.1577   1.2840 H              1 S1                 0.0000
     33 ****         3.4733  -2.9928   1.8663 H              1 S1                 0.0000
     34 ****         3.5150  -8.1762   2.2511 H              1 S1                 0.0000
     35 ****        -0.0119   2.5424   0.7598 H              1 S1                 0.0000
     36 ****         1.2136   2.3976  -0.4840 H              1 S1                 0.0000
     37 ****        -0.3534   3.2218  -2.2114 H              1 S1                 0.0000
     38 ****        -0.2204   4.3691  -0.9106 H              1 S1                 0.0000
     39 ****        -0.0901   0.7554  -1.5525 H              1 S1                 0.0000
     40 ****        -2.9060   5.8954   0.5313 LP             1 S1                 0.0000
     41 ****        -1.3417   5.4263  -0.0457 LP             1 S1                 0.0000
     42 ****         0.9451  -2.5321  -1.1261 LP             1 S1                 0.0000
     43 ****         1.3111  -4.1541  -0.6414 LP             1 S1                 0.0000
     44 ****         1.6302  -5.4191  -0.2210 LP             1 S1                 0.0000
     45 ****         1.9946  -7.8309   0.3752 LP             1 S1                 0.0000
@<TRIPOS>BOND
    1    1    2 1     
    2    1   21 1     
    3    1   22 1     
    4    1   23 1     
    5    2    3 2     
    6    2    4 am    
    7    4   20 1     
    8    4    5 1     
    9    5    6 1     
   10    5   24 1     
   11    5   25 1     
   12    6    7 1     
   13    6   26 1     
   14    6   27 1     
   15    7    8 1     
   16    7   19 1     
   17    7   39 1     
   18    8    9 1     
   19    8   28 1     
   20    8   29 1     
   21    9   10 1     
   22    9   30 1     
   23    9   31 1     
   24   10   11 am    
   25   10   32 1     
   26   11   12 2     
   27   11   13 am    
   28   13   14 1     
   29   13   33 1     
   30   14   18 1     
   31   14   15 2     
   32   15   16 1     
   33   16   17 2     
   34   17   18 1     
   35   17   34 1     
   36   19   20 1     
   37   19   35 1     
   38   19   36 1     
   39   20   37 1     
   40   20   38 1     
   41    3   40 1     
   42    3   41 1     
   43   12   42 1     
   44   12   43 1     
   45   15   44 1     
   46   16   45 1     
@<TRIPOS>SUBSTRUCTURE
      1 S1             1
@<TRIPOS>SET
LONE_PAIRS      STATIC     ATOMS    <user>   **** ""
6 40 41 42 43 44 45
DONOR_HYDROGENS      STATIC     ATOMS    <user>   **** ""
3 39 32 33
ATOM$BLUE        STATIC     ATOMS    COLORGROUP SYSTEM
6 40 41 42 43 44 45
ATOM$RED        STATIC     ATOMS    COLORGROUP SYSTEM
3 39 32 33
