#       Name:                AV-unprocessed.smi:3085
#       Creating user name   scv26
#       Creation time:       Fri Mar 27 17:14:29 2020


#       File generated by GOLD software.
#

@<TRIPOS>MOLECULE
AV-unprocessed.smi:3085
    32    33     1
SMALL
NO_CHARGES


@<TRIPOS>ATOM
      1 ****        -3.9215   0.9414   1.2015 C.3            1 S1                 0.0000
      2 ****        -3.3716  -0.4879   1.2560 C.3            1 S1                 0.0000
      3 ****        -1.8786  -0.5306   1.2569 C.2            1 S1                 0.0000
      4 ****        -1.1101  -0.4524   0.1761 N.2            1 S1                 0.0000
      5 ****         0.1297  -0.5406   0.7506 C.2            1 S1                 0.0000
      6 ****         1.4056  -0.4733  -0.0307 C.3            1 S1                 0.0000
      7 ****         1.8695   0.9775  -0.2652 C.3            1 S1                 0.0000
      8 ****         3.0627   0.9961  -1.1104 N.3            1 S1                 0.0000
      9 ****         2.8318   0.2828  -2.3659 C.3            1 S1                 0.0000
     10 ****         2.3347  -1.1476  -2.0873 C.3            1 S1                 0.0000
     11 ****         1.1573  -1.0979  -1.2885 O.3            1 S1                 0.0000
     12 ****         0.1480  -0.6278   2.0804 N.2            1 S1                 0.0000
     13 ****        -1.1676  -0.6281   2.3820 N.pl3          1 S1                 0.0000
     14 ****        -1.5173  -0.6889   3.3275 H              1 S1                 0.0000
     15 ****        -5.0115   0.9383   1.1986 H              1 S1                 0.0000
     16 ****        -3.5872   1.4571   0.3009 H              1 S1                 0.0000
     17 ****        -3.5919   1.5225   2.0633 H              1 S1                 0.0000
     18 ****        -3.7435  -0.9959   2.1466 H              1 S1                 0.0000
     19 ****        -3.7357  -1.0567   0.3997 H              1 S1                 0.0000
     20 ****         2.1743  -1.0336   0.5056 H              1 S1                 0.0000
     21 ****         1.0708   1.5469  -0.7423 H              1 S1                 0.0000
     22 ****         2.0782   1.4653   0.6872 H              1 S1                 0.0000
     23 ****         3.3244   1.9567  -1.3082 H              1 S1                 0.0000
     24 ****         2.0930   0.8164  -2.9650 H              1 S1                 0.0000
     25 ****         3.7494   0.2528  -2.9536 H              1 S1                 0.0000
     26 ****         2.1026  -1.6525  -3.0251 H              1 S1                 0.0000
     27 ****         3.1042  -1.7399  -1.5895 H              1 S1                 0.0000
     28 ****        -1.3652  -0.3562  -0.7861 LP             1 S1                 0.0000
     29 ****         3.8022   0.5356  -0.6194 LP             1 S1                 0.0000
     30 ****         0.4553  -0.5789  -1.7762 LP             1 S1                 0.0000
     31 ****         0.8325  -2.0303  -1.1299 LP             1 S1                 0.0000
     32 ****         0.9342  -0.6797   2.6962 LP             1 S1                 0.0000
@<TRIPOS>BOND
    1    1    2 1     
    2    1   15 1     
    3    1   16 1     
    4    1   17 1     
    5    2    3 1     
    6    2   18 1     
    7    2   19 1     
    8    3   13 1     
    9    3    4 2     
   10    4    5 1     
   11    5    6 1     
   12    5   12 2     
   13    6   11 1     
   14    6    7 1     
   15    6   20 1     
   16    7    8 1     
   17    7   21 1     
   18    7   22 1     
   19    8    9 1     
   20    8   23 1     
   21    9   10 1     
   22    9   24 1     
   23    9   25 1     
   24   10   11 1     
   25   10   26 1     
   26   10   27 1     
   27   12   13 1     
   28   13   14 1     
   29    4   28 1     
   30    8   29 1     
   31   11   30 1     
   32   11   31 1     
   33   12   32 1     
@<TRIPOS>SUBSTRUCTURE
      1 S1             1
@<TRIPOS>SET
LONE_PAIRS      STATIC     ATOMS    <user>   **** ""
5 28 29 30 31 32
DONOR_HYDROGENS      STATIC     ATOMS    <user>   **** ""
2 23 14
ATOM$BLUE        STATIC     ATOMS    COLORGROUP SYSTEM
5 28 29 30 31 32
ATOM$RED        STATIC     ATOMS    COLORGROUP SYSTEM
2 23 14
