AV-unprocessed.smi:2750|AV-procd|sdf|10591|dock2
  -GOLD-   2272015 43D 1   1.00000     0.00000
 Structure written by MMmdl.
 24 25  0  0  0  0  0  0  0  0  3 V2000
  146.4561  137.0159  161.0389 O   0  0  0  0  0  0  0  0  0  0  0  0
  147.4486  136.3734  161.4465 C   0  0  0  0  0  0  0  0  0  0  0  0
  148.0642  136.5828  162.5145 O   0  5  0  0  0  0  0  0  0  0  0  0
  147.9535  135.2339  160.5618 C   0  0  0  0  0  0  0  0  0  0  0  0
  148.5771  135.7269  159.3474 N   0  0  0  0  0  0  0  0  0  0  0  0
  148.6643  137.0271  158.8945 C   0  0  0  0  0  0  0  0  0  0  0  0
  149.3490  136.9092  157.7189 C   0  0  0  0  0  0  0  0  0  0  0  0
  149.7535  137.9811  156.7515 C   0  0  0  0  0  0  0  0  0  0  0  0
  150.9831  137.5916  155.9063 C   0  0  2  0  0  0  0  0  0  0  0  0
  152.0598  137.0929  156.7352 N   0  0  0  0  0  0  0  0  0  0  0  0
  153.1680  137.8139  156.5780 C   0  0  0  0  0  0  0  0  0  0  0  0
  154.2057  137.5451  157.1790 O   0  0  0  0  0  0  0  0  0  0  0  0
  152.9476  138.8184  155.7077 N   0  5  0  0  0  0  0  0  0  0  0  0
  151.6763  138.7865  155.2535 C   0  0  0  0  0  0  0  0  0  0  0  0
  151.0969  139.5257  154.4591 O   0  0  0  0  0  0  0  0  0  0  0  0
  149.6419  135.5621  157.5053 N   0  0  0  0  0  0  0  0  0  0  0  0
  149.1759  134.8629  158.4925 N   0  0  0  0  0  0  0  0  0  0  0  0
  148.6667  134.6222  161.1167 H   0  0  0  0  0  0  0  0  0  0  0  0
  147.1232  134.5821  160.2870 H   0  0  0  0  0  0  0  0  0  0  0  0
  148.2556  137.8746  159.4245 H   0  0  0  0  0  0  0  0  0  0  0  0
  148.9149  138.1905  156.0860 H   0  0  0  0  0  0  0  0  0  0  0  0
  149.9446  138.9148  157.2831 H   0  0  0  0  0  0  0  0  0  0  0  0
  150.7232  136.8579  155.1418 H   0  0  0  0  0  0  0  0  0  0  0  0
  151.9691  136.2917  157.3427 H   0  0  0  0  0  0  0  0  0  0  0  0
  1  2  2  0  0  0  0
  2  3  1  0  0  0  0
  2  4  1  0  0  0  0
  4  5  1  0  0  0  0
  4 18  1  0  0  0  0
  4 19  1  0  0  0  0
  5 17  1  0  0  0  0
  5  6  1  0  0  0  0
  6  7  2  0  0  0  0
  6 20  1  0  0  0  0
  7  8  1  0  0  0  0
  7 16  1  0  0  0  0
  8  9  1  0  0  0  0
  8 21  1  0  0  0  0
  8 22  1  0  0  0  0
  9 14  1  0  0  0  0
  9 10  1  0  0  0  0
  9 23  1  0  0  0  0
 10 11  1  0  0  0  0
 10 24  1  0  0  0  0
 11 12  2  0  0  0  0
 11 13  1  0  0  0  0
 13 14  1  0  0  0  0
 14 15  2  0  0  0  0
 16 17  2  0  0  0  0
M  CHG  1   3  -1
M  CHG  1  13  -1
M  END
> <s_m_source_file>
AV-unprocessed.smi

> <i_m_source_file_index>
2750

> <i_lp_mmshare_version>
43012

> <i_f3d_flags>
0

> <s_epik_input>
Tz1DKFtPSF0pW0NIMl1uMVtjSF1jKG5uMSlbQ0gyXVtDQEBIXTJbTkhdQyg9TylbTkhdQzI9Tw==

> <s_epik_cmdline>
J2VwaWtfcHl0aG9uJywgJy1waCcsICc3LjAnLCAnLXRuJywgJzgnLCAnLW1hJywgJzIwMCcsICctbWV0YWxfYmluZGluZycsICctaW1hZScsICc8aW5maWxlLm1hZT4nLCAnLW9tYWUnLCAnPG91dGZpbGUubWFlPic=

> <r_lp_tautomer_probability>
1

> <r_epik_Ionization_Penalty>
2.03209

> <r_epik_Ionization_Penalty_Charging>
2.03208

> <r_epik_Ionization_Penalty_Neutral>
1.30912e-05

> <r_epik_State_Penalty>
2.16313

> <r_epik_Charging_Adjusted_Penalty>
4.19521

> <i_epik_Tot_Q>
-2

> <i_epik_Tot_abs_Q>
2

> <r_epik_Metal_State_Penalty>
0.529162

> <b_epik_Metal_Only>
0

> <s_lp_Force_Field>
OPLS_2005

> <r_lp_Energy>
4.69522

> <b_lp_Chiralities_Consistent>
1

> <s_lp_Variant>
AV-unprocessed.smi:2750-3

> <Gold.Version>
5.8.1

> <Gold.Id.Protein>
6NUR|6NUR_protein|mol2

> <Gold.PLP.Fitness>
43.3092

> <Gold.PLP.PLP>
-21.0602

> <Gold.PLP.part.hbond>
-6.0146

> <Gold.PLP.part.metal>
0.0000

> <Gold.PLP.part.buried>
-4.0327

> <Gold.PLP.part.nonpolar>
-11.2203

> <Gold.PLP.part.repulsive>
0.2293

> <Gold.PLP.ligand.clash>
0.0000

> <Gold.PLP.ligand.torsion>
0.5877

> <Gold.PLP.Chemscore.Hbond>
7.8000

> <Gold.PLP.Chemscore.CHOScore>
0.0000

> <Gold.PLP.Chemscore.Metal>
0.0000

> <Gold.Chemscore.Hbonds>
donor molecule, donor type, donor heavy atom, donor atom, acceptor molecule, acceptor atom, score
      P1  H  6896  6907       L1    17  1.00
      P1  H  6931  6943       L1     3  1.80
      P1  H  6934  6947       L1     1  1.50
      P1  H  7989  7998       L1    15  1.00
      P1  H  7997  8008       L1    13  2.00

> <Gold.PLP.Chemscore.Internal.Correction>
0.0243

> <Gold.Rescore>
     Score         DG    S(hbond)    S(metal)    S(lipo)     H(rot)  DE(clash)    DE(int)     intcor
     10.13     -12.54       3.65        0.00      17.52       2.80       0.00       2.42       ----

> <Gold.Chemscore.Fitness>
10.1271

> <Gold.Chemscore.DG>
-12.5432

> <Gold.Chemscore.ZeroCoef>
-5.4800

> <Gold.Chemscore.Hbond>
3.6452

> <Gold.Chemscore.Metal>
0.0000

> <Gold.Chemscore.Lipo>
17.5163

> <Gold.Chemscore.Internal_Hbond>
0.0000

> <Gold.Chemscore.DEClash>
0.0000

> <Gold.Chemscore.DEInternal>
2.4161

> <Gold.Chemscore.Rot>
2.7973

> <Gold.Chemscore.Internal.Correction>
   9.000000E+99

> <Gold.Chemscore.Hbonds>
donor molecule, donor type, donor heavy atom, donor atom, acceptor molecule, acceptor atom, score
      P1  H  6896  6907       L1    17  0.28
      P1  H  6931  6943       L1     3  0.17
      P1  H  6934  6947       L1     1  0.33
      P1  H  7989  7998       L1    15  1.00
      P1  H  7997  8008       L1    13  0.38

> <Gold.Chemscore.Hbond.Weighted>
-12.1749

> <Gold.Chemscore.Metal.Weighted>
-0.0000

> <Gold.Chemscore.Lipo.Weighted>
-2.0494

> <Gold.Chemscore.Internal_Hbond.Weighted>
0.0000

> <Gold.Chemscore.DEClash.Weighted>
0.0000

> <Gold.Chemscore.DEInternal.Weighted>
2.4161

> <Gold.Chemscore.Rot.Weighted>
7.1611

> <Gold.Chemscore.Internal.Correction.Weighted>
   9.000000E+99

> <Gold.Protein.RotatedTorsions>
[ 6907 6896 6895 6894 ] final  -93.59 input  -60.11 | X-H torsion
[ 7974 7965 7964 7962 ] final  -71.48 input  175.53 | X-H torsion
[ 8008 7997 7996 7995 ] final  -33.86 input   59.86 | X-H torsion
[ 10167 10162 10161 10158 ] final   10.45 input  -65.29 | X-H torsion
[ 10718 10713 10712 10709 ] final -105.38 input   66.30 | X-H torsion
[ 10763 10752 10751 10750 ] final  163.14 input  -60.55 | X-H torsion
[ 11005 11000 10999 10996 ] final -127.67 input  -57.11 | X-H torsion

> <Gold.Protein.ActiveResidues>
 VAL166  LYS551  ARG553  GLY616  TRP617  ASP618  TYR619  PRO620  LYS621  CYS622 
 ASP623  PHE694  ASN695  SER759  ASP760  ASP761  ALA762  ILE779  LEU786  VAL792 
 PHE793  MET794  SER795  GLU796  ALA797  LYS798  CYS799  TRP800  GLU811  SER814 

> <Gold.Protein.RotatedAtoms>
  150.6925  134.1944  159.4297 H   0  0  0  0  0  0  0  0  0  0  0  0  # atno 6907 bound_to 6896
  151.9913  134.9975  160.0571 H   0  0  0  0  0  0  0  0  0  0  0  0  # atno 6908 bound_to 6896
  152.1664  133.4580  159.4924 H   0  0  0  0  0  0  0  0  0  0  0  0  # atno 6909 bound_to 6896
  145.6775  140.9199  143.0850 H   0  0  0  0  0  0  0  0  0  0  0  0  # atno 7974 bound_to 7965
  154.4137  140.1699  156.1956 H   0  0  0  0  0  0  0  0  0  0  0  0  # atno 8008 bound_to 7997
  155.9567  140.3397  155.6431 H   0  0  0  0  0  0  0  0  0  0  0  0  # atno 8009 bound_to 7997
  155.6801  140.0721  157.2478 H   0  0  0  0  0  0  0  0  0  0  0  0  # atno 8010 bound_to 7997
  140.6193  143.8239  150.7156 H   0  0  0  0  0  0  0  0  0  0  0  0  # atno 10167 bound_to 10162
  156.0344  130.5561  150.7531 H   0  0  0  0  0  0  0  0  0  0  0  0  # atno 10718 bound_to 10713
  154.2892  135.2761  155.2662 H   0  0  0  0  0  0  0  0  0  0  0  0  # atno 10763 bound_to 10752
  154.5149  135.5772  153.6638 H   0  0  0  0  0  0  0  0  0  0  0  0  # atno 10764 bound_to 10752
  152.9917  135.6190  154.3055 H   0  0  0  0  0  0  0  0  0  0  0  0  # atno 10765 bound_to 10752
  140.9580  134.0975  157.3996 H   0  0  0  0  0  0  0  0  0  0  0  0  # atno 11005 bound_to 11000
  144.7037  139.8653  143.7436 LP  0  0  0  0  0  0  0  0  0  0  0  0  # atno 17320 bound_to 7965
  146.0992  139.3987  143.0357 LP  0  0  0  0  0  0  0  0  0  0  0  0  # atno 17321 bound_to 7965
  140.1826  143.4102  152.1922 LP  0  0  0  0  0  0  0  0  0  0  0  0  # atno 17342 bound_to 10162
  139.5425  144.7269  151.4688 LP  0  0  0  0  0  0  0  0  0  0  0  0  # atno 17343 bound_to 10162
  157.5070  131.0923  151.0245 LP  0  0  0  0  0  0  0  0  0  0  0  0  # atno 17370 bound_to 10713
  157.0610  130.5825  149.5386 LP  0  0  0  0  0  0  0  0  0  0  0  0  # atno 17371 bound_to 10713
  139.8869  135.0085  156.6525 LP  0  0  0  0  0  0  0  0  0  0  0  0  # atno 17394 bound_to 11000
  140.7508  133.8899  155.8345 LP  0  0  0  0  0  0  0  0  0  0  0  0  # atno 17395 bound_to 11000

$$$$
