AV-unprocessed.smi:3032|AV-procd|sdf|11567|dock4
  -GOLD-   2272016533D 1   1.00000     0.00000
 Structure written by MMmdl.
 37 38  0  0  0  0  0  0  0  0  1 V2000
  153.7457  142.0498  160.9678 C   0  0  0  0  0  0  0  0  0  0  0  0
  153.0589  142.7246  159.7720 C   0  0  2  0  0  0  0  0  0  0  0  0
  152.3678  144.0380  160.1870 C   0  0  0  0  0  0  0  0  0  0  0  0
  151.6722  144.7113  158.9935 C   0  0  0  0  0  0  0  0  0  0  0  0
  150.6729  143.7578  158.3204 C   0  0  0  0  0  0  0  0  0  0  0  0
  151.3589  142.4460  157.8863 C   0  0  2  0  0  0  0  0  0  0  0  0
  150.3491  141.4945  157.2316 C   0  0  0  0  0  0  0  0  0  0  0  0
  150.2101  140.3467  157.6553 O   0  0  0  0  0  0  0  0  0  0  0  0
  149.6416  141.9879  156.2039 N   0  0  0  0  0  0  0  0  0  0  0  0
  148.6142  141.2613  155.4633 C   0  0  0  0  0  0  0  0  0  0  0  0
  149.1955  140.2895  154.4168 C   0  0  0  0  0  0  0  0  0  0  0  0
  150.5305  139.7266  154.7902 C   0  0  0  0  0  0  0  0  0  0  0  0
  151.6480  140.4472  154.9434 N   0  0  0  0  0  0  0  0  0  0  0  0
  152.6387  139.5333  155.2678 N   0  0  0  0  0  0  0  0  0  0  0  0
  152.0220  138.3504  155.2777 C   0  0  0  0  0  0  0  0  0  0  0  0
  150.7172  138.4126  154.9890 N   0  0  0  0  0  0  0  0  0  0  0  0
  152.0502  141.7766  159.0939 C   0  0  0  0  0  0  0  0  0  0  0  0
  150.0443  137.6620  154.9316 H   0  0  0  0  0  0  0  0  0  0  0  0
  153.0231  141.7760  161.7372 H   0  0  0  0  0  0  0  0  0  0  0  0
  154.4820  142.7121  161.4238 H   0  0  0  0  0  0  0  0  0  0  0  0
  154.2656  141.1419  160.6610 H   0  0  0  0  0  0  0  0  0  0  0  0
  153.8339  142.9680  159.0436 H   0  0  0  0  0  0  0  0  0  0  0  0
  151.6334  143.8376  160.9683 H   0  0  0  0  0  0  0  0  0  0  0  0
  153.0976  144.7237  160.6189 H   0  0  0  0  0  0  0  0  0  0  0  0
  151.1578  145.6138  159.3248 H   0  0  0  0  0  0  0  0  0  0  0  0
  152.4200  145.0311  158.2665 H   0  0  0  0  0  0  0  0  0  0  0  0
  149.8571  143.5454  159.0134 H   0  0  0  0  0  0  0  0  0  0  0  0
  150.2241  144.2508  157.4568 H   0  0  0  0  0  0  0  0  0  0  0  0
  152.1263  142.6915  157.1498 H   0  0  0  0  0  0  0  0  0  0  0  0
  149.8174  142.9416  155.9216 H   0  0  0  0  0  0  0  0  0  0  0  0
  148.0300  140.6981  156.1915 H   0  0  0  0  0  0  0  0  0  0  0  0
  147.9245  141.9618  154.9905 H   0  0  0  0  0  0  0  0  0  0  0  0
  148.5016  139.4632  154.2593 H   0  0  0  0  0  0  0  0  0  0  0  0
  149.2865  140.7937  153.4537 H   0  0  0  0  0  0  0  0  0  0  0  0
  152.5318  137.4242  155.4988 H   0  0  0  0  0  0  0  0  0  0  0  0
  152.5632  140.8701  158.7685 H   0  0  0  0  0  0  0  0  0  0  0  0
  151.3043  141.4611  159.8257 H   0  0  0  0  0  0  0  0  0  0  0  0
  1  2  1  0  0  0  0
  1 19  1  0  0  0  0
  1 20  1  0  0  0  0
  1 21  1  0  0  0  0
  2 17  1  0  0  0  0
  2  3  1  0  0  0  0
  2 22  1  0  0  0  0
  3  4  1  0  0  0  0
  3 23  1  0  0  0  0
  3 24  1  0  0  0  0
  4  5  1  0  0  0  0
  4 25  1  0  0  0  0
  4 26  1  0  0  0  0
  5  6  1  0  0  0  0
  5 27  1  0  0  0  0
  5 28  1  0  0  0  0
  6  7  1  0  0  0  0
  6 17  1  0  0  0  0
  6 29  1  0  0  0  0
  7  8  2  0  0  0  0
  7  9  1  0  0  0  0
  9 10  1  0  0  0  0
  9 30  1  0  0  0  0
 10 11  1  0  0  0  0
 10 31  1  0  0  0  0
 10 32  1  0  0  0  0
 11 12  1  0  0  0  0
 11 33  1  0  0  0  0
 11 34  1  0  0  0  0
 12 16  1  0  0  0  0
 12 13  2  0  0  0  0
 13 14  1  0  0  0  0
 14 15  2  0  0  0  0
 15 16  1  0  0  0  0
 15 35  1  0  0  0  0
 16 18  1  0  0  0  0
 17 36  1  0  0  0  0
 17 37  1  0  0  0  0
M  END
> <s_m_source_file>
AV-unprocessed.smi

> <i_m_source_file_index>
3032

> <i_lp_mmshare_version>
43012

> <i_f3d_flags>
0

> <s_epik_input>
W0NIM11bQ0BASF0xW0NIMl1bQ0gyXVtDSDJdW0NASF0oW0NIMl0xKUMoPU8pW05IXVtDSDJdW0NIMl1jMm5uW2NIXVtuSF0y

> <s_epik_cmdline>
J2VwaWtfcHl0aG9uJywgJy1waCcsICc3LjAnLCAnLXRuJywgJzgnLCAnLW1hJywgJzIwMCcsICctbWV0YWxfYmluZGluZycsICctaW1hZScsICc8aW5maWxlLm1hZT4nLCAnLW9tYWUnLCAnPG91dGZpbGUubWFlPic=

> <r_lp_tautomer_probability>
0.0517155

> <r_epik_Ionization_Penalty>
0.00149837

> <r_epik_Ionization_Penalty_Charging>
0

> <r_epik_Ionization_Penalty_Neutral>
0.00149837

> <r_epik_State_Penalty>
2.1109

> <r_epik_Charging_Adjusted_Penalty>
2.1109

> <i_epik_Tot_Q>
0

> <i_epik_Tot_abs_Q>
0

> <r_epik_Metal_State_Penalty>
2.23635

> <b_epik_Metal_Only>
0

> <s_lp_Force_Field>
OPLS_2005

> <r_lp_Energy>
11.1501

> <b_lp_Chiralities_Consistent>
1

> <s_lp_Variant>
AV-unprocessed.smi:3032-11

> <Gold.Version>
5.8.1

> <Gold.Id.Protein>
6NUR|6NUR_protein|mol2

> <Gold.PLP.Fitness>
43.8092

> <Gold.PLP.PLP>
-37.0919

> <Gold.PLP.part.hbond>
-2.9278

> <Gold.PLP.part.metal>
0.0000

> <Gold.PLP.part.buried>
-3.9355

> <Gold.PLP.part.nonpolar>
-30.6420

> <Gold.PLP.part.repulsive>
0.1981

> <Gold.PLP.ligand.clash>
0.0000

> <Gold.PLP.ligand.torsion>
0.3701

> <Gold.PLP.Chemscore.Hbond>
2.4790

> <Gold.PLP.Chemscore.CHOScore>
0.0000

> <Gold.PLP.Chemscore.Metal>
0.0000

> <Gold.Chemscore.Hbonds>
donor molecule, donor type, donor heavy atom, donor atom, acceptor molecule, acceptor atom, score
      L1  H     9    30       P1  8028  0.85
      P1  H  7989  7998       L1    13  0.51
      P1  H  7997  8008       L1    14  1.00

> <Gold.PLP.Chemscore.Internal.Correction>
0.0204

> <Gold.Rescore>
     Score         DG    S(hbond)    S(metal)    S(lipo)     H(rot)  DE(clash)    DE(int)     intcor
     12.74     -16.26       1.98        0.00      84.74       2.25       0.33       3.19       ----

> <Gold.Chemscore.Fitness>
12.7440

> <Gold.Chemscore.DG>
-16.2614

> <Gold.Chemscore.ZeroCoef>
-5.4800

> <Gold.Chemscore.Hbond>
1.9841

> <Gold.Chemscore.Metal>
0.0000

> <Gold.Chemscore.Lipo>
84.7429

> <Gold.Chemscore.Internal_Hbond>
0.0000

> <Gold.Chemscore.DEClash>
0.3256

> <Gold.Chemscore.DEInternal>
3.1918

> <Gold.Chemscore.Rot>
2.2501

> <Gold.Chemscore.Internal.Correction>
   9.000000E+99

> <Gold.Chemscore.Hbonds>
donor molecule, donor type, donor heavy atom, donor atom, acceptor molecule, acceptor atom, score
      L1  H     9    30       P1  8028  0.78
      P1  H  7989  7998       L1    13  0.04
      P1  H  7997  8008       L1    14  0.92

> <Gold.Chemscore.Hbond.Weighted>
-6.6268

> <Gold.Chemscore.Metal.Weighted>
-0.0000

> <Gold.Chemscore.Lipo.Weighted>
-9.9149

> <Gold.Chemscore.Internal_Hbond.Weighted>
0.0000

> <Gold.Chemscore.DEClash.Weighted>
0.3256

> <Gold.Chemscore.DEInternal.Weighted>
3.1918

> <Gold.Chemscore.Rot.Weighted>
5.7603

> <Gold.Chemscore.Internal.Correction.Weighted>
   9.000000E+99

> <Gold.Protein.RotatedTorsions>
[ 6907 6896 6895 6894 ] final  -51.68 input  -60.11 | X-H torsion
[ 7974 7965 7964 7962 ] final   -3.51 input  175.53 | X-H torsion
[ 8008 7997 7996 7995 ] final  -21.39 input   59.86 | X-H torsion
[ 10167 10162 10161 10158 ] final -143.34 input  -65.29 | X-H torsion
[ 10718 10713 10712 10709 ] final  -33.49 input   66.30 | X-H torsion
[ 10763 10752 10751 10750 ] final  -21.19 input  -60.55 | X-H torsion
[ 11005 11000 10999 10996 ] final  -37.97 input  -57.11 | X-H torsion

> <Gold.Protein.ActiveResidues>
 VAL166  LYS551  ARG553  GLY616  TRP617  ASP618  TYR619  PRO620  LYS621  CYS622 
 ASP623  PHE694  ASN695  SER759  ASP760  ASP761  ALA762  ILE779  LEU786  VAL792 
 PHE793  MET794  SER795  GLU796  ALA797  LYS798  CYS799  TRP800  GLU811  SER814 

> <Gold.Protein.RotatedAtoms>
  150.8588  134.7934  159.7066 H   0  0  0  0  0  0  0  0  0  0  0  0  # atno 6907 bound_to 6896
  152.4631  134.5134  159.9770 H   0  0  0  0  0  0  0  0  0  0  0  0  # atno 6908 bound_to 6896
  151.5241  133.3423  159.2942 H   0  0  0  0  0  0  0  0  0  0  0  0  # atno 6909 bound_to 6896
  146.2388  140.1732  142.8332 H   0  0  0  0  0  0  0  0  0  0  0  0  # atno 7974 bound_to 7965
  154.4709  140.2036  155.9998 H   0  0  0  0  0  0  0  0  0  0  0  0  # atno 8008 bound_to 7997
  156.1008  140.3244  155.7910 H   0  0  0  0  0  0  0  0  0  0  0  0  # atno 8009 bound_to 7997
  155.4800  140.0538  157.2959 H   0  0  0  0  0  0  0  0  0  0  0  0  # atno 8010 bound_to 7997
  139.8002  143.7844  152.2657 H   0  0  0  0  0  0  0  0  0  0  0  0  # atno 10167 bound_to 10162
  156.3620  130.4325  149.7616 H   0  0  0  0  0  0  0  0  0  0  0  0  # atno 10718 bound_to 10713
  153.6322  135.6988  153.5271 H   0  0  0  0  0  0  0  0  0  0  0  0  # atno 10763 bound_to 10752
  153.2850  135.4174  155.1113 H   0  0  0  0  0  0  0  0  0  0  0  0  # atno 10764 bound_to 10752
  154.8519  135.3611  154.5865 H   0  0  0  0  0  0  0  0  0  0  0  0  # atno 10765 bound_to 10752
  140.9993  133.6964  156.1992 H   0  0  0  0  0  0  0  0  0  0  0  0  # atno 11005 bound_to 11000
  144.9994  140.8619  143.5291 LP  0  0  0  0  0  0  0  0  0  0  0  0  # atno 17320 bound_to 7965
  145.1749  139.2383  143.5322 LP  0  0  0  0  0  0  0  0  0  0  0  0  # atno 17321 bound_to 7965
  139.7962  144.7392  150.9887 LP  0  0  0  0  0  0  0  0  0  0  0  0  # atno 17342 bound_to 10162
  140.7820  143.4392  151.0578 LP  0  0  0  0  0  0  0  0  0  0  0  0  # atno 17343 bound_to 10162
  156.4776  130.8026  151.3041 LP  0  0  0  0  0  0  0  0  0  0  0  0  # atno 17370 bound_to 10713
  157.7474  131.0016  150.2969 LP  0  0  0  0  0  0  0  0  0  0  0  0  # atno 17371 bound_to 10713
  140.6916  134.4660  157.5588 LP  0  0  0  0  0  0  0  0  0  0  0  0  # atno 17394 bound_to 11000
  139.9030  134.8512  156.1817 LP  0  0  0  0  0  0  0  0  0  0  0  0  # atno 17395 bound_to 11000

$$$$
