AV-unprocessed.smi:275|AV-procd|sdf|2063|dock4
  -GOLD-   2262021313D 1   1.00000     0.00000
 Structure written by MMmdl.
 65 69  0  0  0  0  0  0  0  0  1 V2000
  154.9030  134.3403  163.9084 C   0  0  0  0  0  0  0  0  0  0  0  0
  155.4985  134.6210  162.5209 C   0  0  0  0  0  0  0  0  0  0  0  0
  156.6189  133.6009  162.2184 C   0  0  0  0  0  0  0  0  0  0  0  0
  155.8708  136.1188  162.3617 C   0  0  1  0  0  0  0  0  0  0  0  0
  154.6752  136.9644  162.3319 N   0  0  0  0  0  0  0  0  0  0  0  0
  154.5704  137.9153  161.2638 C   0  0  0  0  0  0  0  0  0  0  0  0
  155.3859  139.0051  161.2799 N   0  0  0  0  0  0  0  0  0  0  0  0
  155.3329  139.9360  160.3242 C   0  0  0  0  0  0  0  0  0  0  0  0
  154.5310  139.9921  159.2628 N   0  0  0  0  0  0  0  0  0  0  0  0
  153.6825  138.9273  159.2399 C   0  0  0  0  0  0  0  0  0  0  0  0
  153.6304  137.8633  160.1884 C   0  0  0  0  0  0  0  0  0  0  0  0
  152.6207  136.9776  159.8272 N   0  0  0  0  0  0  0  0  0  0  0  0
  152.1218  137.4741  158.7296 C   0  0  0  0  0  0  0  0  0  0  0  0
  152.7054  138.6424  158.3022 N   0  0  0  0  0  0  0  0  0  0  0  0
  152.3460  139.4055  157.1194 C   0  0  0  0  0  0  0  0  0  0  0  0
  151.0137  140.1822  157.2730 C   0  0  2  0  0  0  0  0  0  0  0  0
  150.1595  140.0841  155.9830 C   0  0  0  0  0  0  0  0  0  0  0  0
  150.9643  140.0254  154.8242 O   0  0  0  0  0  0  0  0  0  0  0  0
  151.2993  141.6522  157.6860 C   0  0  2  0  0  0  0  0  0  0  0  0
  152.2094  141.8016  158.9027 C   0  0  0  0  0  0  0  0  0  0  0  0
  151.7519  143.0977  159.5783 C   0  0  0  0  0  0  0  0  0  0  0  0
  150.6650  143.5774  158.7999 O   0  0  0  0  0  0  0  0  0  0  0  0
  150.0863  142.4734  158.1266 C   0  0  0  0  0  0  0  0  0  0  0  0
  154.9502  137.5083  163.6606 C   0  0  0  0  0  0  0  0  0  0  0  0
  156.3937  137.0053  163.5242 C   0  0  0  0  0  0  0  0  0  0  0  0
  157.4079  138.0982  163.1202 C   0  0  0  0  0  0  0  0  0  0  0  0
  158.8112  137.5450  162.8212 C   0  0  0  0  0  0  0  0  0  0  0  0
  159.3760  136.7954  164.0328 C   0  0  0  0  0  0  0  0  0  0  0  0
  158.3954  135.7223  164.5190 C   0  0  0  0  0  0  0  0  0  0  0  0
  156.9949  136.3132  164.7650 C   0  0  0  0  0  0  0  0  0  0  0  0
  155.6426  134.4949  164.6945 H   0  0  0  0  0  0  0  0  0  0  0  0
  154.5485  133.3121  163.9848 H   0  0  0  0  0  0  0  0  0  0  0  0
  154.0543  134.9933  164.1130 H   0  0  0  0  0  0  0  0  0  0  0  0
  154.6968  134.4077  161.8154 H   0  0  0  0  0  0  0  0  0  0  0  0
  157.4378  133.6786  162.9340 H   0  0  0  0  0  0  0  0  0  0  0  0
  157.0390  133.7170  161.2223 H   0  0  0  0  0  0  0  0  0  0  0  0
  156.2358  132.5820  162.2807 H   0  0  0  0  0  0  0  0  0  0  0  0
  156.5237  136.2711  161.5041 H   0  0  0  0  0  0  0  0  0  0  0  0
  156.0317  140.7529  160.4275 H   0  0  0  0  0  0  0  0  0  0  0  0
  151.3106  136.9983  158.1979 H   0  0  0  0  0  0  0  0  0  0  0  0
  153.1727  140.0860  156.9168 H   0  0  0  0  0  0  0  0  0  0  0  0
  152.2913  138.7291  156.2656 H   0  0  0  0  0  0  0  0  0  0  0  0
  150.4546  139.7050  158.0799 H   0  0  0  0  0  0  0  0  0  0  0  0
  149.5002  139.2165  156.0183 H   0  0  0  0  0  0  0  0  0  0  0  0
  149.5204  140.9564  155.8576 H   0  0  0  0  0  0  0  0  0  0  0  0
  150.8278  139.1889  154.4061 H   0  0  0  0  0  0  0  0  0  0  0  0
  151.7649  142.1738  156.8483 H   0  0  0  0  0  0  0  0  0  0  0  0
  152.0822  140.9664  159.5927 H   0  0  0  0  0  0  0  0  0  0  0  0
  153.2614  141.8394  158.6181 H   0  0  0  0  0  0  0  0  0  0  0  0
  151.4158  142.9036  160.5978 H   0  0  0  0  0  0  0  0  0  0  0  0
  152.5454  143.8443  159.6185 H   0  0  0  0  0  0  0  0  0  0  0  0
  149.4746  142.8107  157.2895 H   0  0  0  0  0  0  0  0  0  0  0  0
  149.4542  141.9131  158.8177 H   0  0  0  0  0  0  0  0  0  0  0  0
  154.8720  138.5883  163.7846 H   0  0  0  0  0  0  0  0  0  0  0  0
  154.3831  136.9886  164.4326 H   0  0  0  0  0  0  0  0  0  0  0  0
  157.0589  138.6416  162.2421 H   0  0  0  0  0  0  0  0  0  0  0  0
  157.4805  138.8472  163.9101 H   0  0  0  0  0  0  0  0  0  0  0  0
  158.7696  136.8758  161.9613 H   0  0  0  0  0  0  0  0  0  0  0  0
  159.4809  138.3598  162.5451 H   0  0  0  0  0  0  0  0  0  0  0  0
  160.3360  136.3430  163.7828 H   0  0  0  0  0  0  0  0  0  0  0  0
  159.5677  137.5036  164.8397 H   0  0  0  0  0  0  0  0  0  0  0  0
  158.3397  134.9236  163.7800 H   0  0  0  0  0  0  0  0  0  0  0  0
  158.7722  135.2664  165.4350 H   0  0  0  0  0  0  0  0  0  0  0  0
  157.0556  137.0267  165.5879 H   0  0  0  0  0  0  0  0  0  0  0  0
  156.3446  135.5217  165.1297 H   0  0  0  0  0  0  0  0  0  0  0  0
  1  2  1  0  0  0  0
  1 31  1  0  0  0  0
  1 32  1  0  0  0  0
  1 33  1  0  0  0  0
  2  3  1  0  0  0  0
  2  4  1  0  0  0  0
  2 34  1  0  0  0  0
  3 35  1  0  0  0  0
  3 36  1  0  0  0  0
  3 37  1  0  0  0  0
  4 25  1  0  0  0  0
  4  5  1  0  0  0  0
  4 38  1  0  0  0  0
  5  6  1  0  0  0  0
  5 24  1  0  0  0  0
  6 11  1  0  0  0  0
  6  7  2  0  0  0  0
  7  8  1  0  0  0  0
  8  9  2  0  0  0  0
  8 39  1  0  0  0  0
  9 10  1  0  0  0  0
 10 14  1  0  0  0  0
 10 11  2  0  0  0  0
 11 12  1  0  0  0  0
 12 13  2  0  0  0  0
 13 14  1  0  0  0  0
 13 40  1  0  0  0  0
 14 15  1  0  0  0  0
 15 16  1  0  0  0  0
 15 41  1  0  0  0  0
 15 42  1  0  0  0  0
 16 17  1  0  0  0  0
 16 19  1  0  0  0  0
 16 43  1  0  0  0  0
 17 18  1  0  0  0  0
 17 44  1  0  0  0  0
 17 45  1  0  0  0  0
 18 46  1  0  0  0  0
 19 23  1  0  0  0  0
 19 20  1  0  0  0  0
 19 47  1  0  0  0  0
 20 21  1  0  0  0  0
 20 48  1  0  0  0  0
 20 49  1  0  0  0  0
 21 22  1  0  0  0  0
 21 50  1  0  0  0  0
 21 51  1  0  0  0  0
 22 23  1  0  0  0  0
 23 52  1  0  0  0  0
 23 53  1  0  0  0  0
 24 25  1  0  0  0  0
 24 54  1  0  0  0  0
 24 55  1  0  0  0  0
 25 30  1  0  0  0  0
 25 26  1  0  0  0  0
 26 27  1  0  0  0  0
 26 56  1  0  0  0  0
 26 57  1  0  0  0  0
 27 28  1  0  0  0  0
 27 58  1  0  0  0  0
 27 59  1  0  0  0  0
 28 29  1  0  0  0  0
 28 60  1  0  0  0  0
 28 61  1  0  0  0  0
 29 30  1  0  0  0  0
 29 62  1  0  0  0  0
 29 63  1  0  0  0  0
 30 64  1  0  0  0  0
 30 65  1  0  0  0  0
M  END
> <s_m_source_file>
AV-unprocessed.smi

> <i_m_source_file_index>
275

> <i_lp_mmshare_version>
43012

> <i_f3d_flags>
0

> <s_epik_input>
W0NIMl0xW0NIMl1bQ0gyXVtDSDJdW0NIMl1DMTJbQ0BIXShbQ0hdKFtDSDNdKVtDSDNdKU4oW0NIMl0yKWMobltjSF1uMyljKGMzNCluW2NIXW40W0NIMl1bQ0BIXShbQ0gyXVtPSF0pW0NAQEhdNVtDSDJdW0NIMl1PW0NIMl01

> <s_epik_cmdline>
J2VwaWtfcHl0aG9uJywgJy1waCcsICc3LjAnLCAnLXRuJywgJzgnLCAnLW1hJywgJzIwMCcsICctbWV0YWxfYmluZGluZycsICctaW1hZScsICc8aW5maWxlLm1hZT4nLCAnLW9tYWUnLCAnPG91dGZpbGUubWFlPic=

> <r_lp_tautomer_probability>
1

> <r_epik_Ionization_Penalty>
0.00375122

> <r_epik_Ionization_Penalty_Charging>
0

> <r_epik_Ionization_Penalty_Neutral>
0.00375122

> <r_epik_State_Penalty>
0.00260593

> <r_epik_Charging_Adjusted_Penalty>
0.00260593

> <i_epik_Tot_Q>
0

> <i_epik_Tot_abs_Q>
0

> <r_epik_Metal_State_Penalty>
-0

> <b_epik_Metal_Only>
0

> <s_lp_Force_Field>
OPLS_2005

> <r_lp_Energy>
70.0888

> <b_lp_Chiralities_Consistent>
1

> <s_lp_Variant>
AV-unprocessed.smi:275-2

> <Gold.Version>
5.8.1

> <Gold.Id.Protein>
6NUR|6NUR_protein|mol2

> <Gold.PLP.Fitness>
43.2632

> <Gold.PLP.PLP>
-38.0747

> <Gold.PLP.part.hbond>
-2.7766

> <Gold.PLP.part.metal>
0.0000

> <Gold.PLP.part.buried>
-7.1724

> <Gold.PLP.part.nonpolar>
-28.3898

> <Gold.PLP.part.repulsive>
0.0960

> <Gold.PLP.ligand.clash>
0.0088

> <Gold.PLP.ligand.torsion>
1.9637

> <Gold.PLP.Chemscore.Hbond>
2.8613

> <Gold.PLP.Chemscore.CHOScore>
0.0000

> <Gold.PLP.Chemscore.Metal>
0.0000

> <Gold.Chemscore.Hbonds>
donor molecule, donor type, donor heavy atom, donor atom, acceptor molecule, acceptor atom, score
      P1  H  6896  6908       L1    12  1.00
      P1  H  7989  7998       L1    18  0.95
      P1  H  7997  8008       L1     9  0.95

> <Gold.PLP.Chemscore.Internal.Correction>
0.5409

> <Gold.Rescore>
     Score         DG    S(hbond)    S(metal)    S(lipo)     H(rot)  DE(clash)    DE(int)     intcor
     15.70     -18.95       2.75        0.00      92.10       2.54       0.14       3.12       ----

> <Gold.Chemscore.Fitness>
15.6984

> <Gold.Chemscore.DG>
-18.9539

> <Gold.Chemscore.ZeroCoef>
-5.4800

> <Gold.Chemscore.Hbond>
2.7530

> <Gold.Chemscore.Metal>
0.0000

> <Gold.Chemscore.Lipo>
92.0979

> <Gold.Chemscore.Internal_Hbond>
0.0000

> <Gold.Chemscore.DEClash>
0.1382

> <Gold.Chemscore.DEInternal>
3.1173

> <Gold.Chemscore.Rot>
2.5377

> <Gold.Chemscore.Internal.Correction>
   9.000000E+99

> <Gold.Chemscore.Hbonds>
donor molecule, donor type, donor heavy atom, donor atom, acceptor molecule, acceptor atom, score
      P1  H  6896  6908       L1    12  0.52
      P1  H  7989  7998       L1    18  0.22
      P1  H  7997  8008       L1     9  0.33

> <Gold.Chemscore.Hbond.Weighted>
-9.1950

> <Gold.Chemscore.Metal.Weighted>
-0.0000

> <Gold.Chemscore.Lipo.Weighted>
-10.7755

> <Gold.Chemscore.Internal_Hbond.Weighted>
0.0000

> <Gold.Chemscore.DEClash.Weighted>
0.1382

> <Gold.Chemscore.DEInternal.Weighted>
3.1173

> <Gold.Chemscore.Rot.Weighted>
6.4966

> <Gold.Chemscore.Internal.Correction.Weighted>
   9.000000E+99

> <Gold.Protein.RotatedTorsions>
[ 6907 6896 6895 6894 ] final -107.87 input  -60.11 | X-H torsion
[ 7974 7965 7964 7962 ] final -176.82 input  175.53 | X-H torsion
[ 8008 7997 7996 7995 ] final -129.64 input   59.86 | X-H torsion
[ 10167 10162 10161 10158 ] final  -70.17 input  -65.29 | X-H torsion
[ 10718 10713 10712 10709 ] final  -81.58 input   66.30 | X-H torsion
[ 10763 10752 10751 10750 ] final   63.15 input  -60.55 | X-H torsion
[ 11005 11000 10999 10996 ] final   -5.88 input  -57.11 | X-H torsion

> <Gold.Protein.ActiveResidues>
 VAL166  LYS551  ARG553  GLY616  TRP617  ASP618  TYR619  PRO620  LYS621  CYS622 
 ASP623  PHE694  ASN695  SER759  ASP760  ASP761  ALA762  ILE779  LEU786  VAL792 
 PHE793  MET794  SER795  GLU796  ALA797  LYS798  CYS799  TRP800  GLU811  SER814 

> <Gold.Protein.RotatedAtoms>
  150.7469  133.9762  159.3561 H   0  0  0  0  0  0  0  0  0  0  0  0  # atno 6907 bound_to 6896
  151.7699  135.0787  160.0368 H   0  0  0  0  0  0  0  0  0  0  0  0  # atno 6908 bound_to 6896
  152.3346  133.5960  159.5869 H   0  0  0  0  0  0  0  0  0  0  0  0  # atno 6909 bound_to 6896
  144.7127  140.1112  143.6411 H   0  0  0  0  0  0  0  0  0  0  0  0  # atno 7974 bound_to 7965
  155.2826  140.0445  157.3017 H   0  0  0  0  0  0  0  0  0  0  0  0  # atno 8008 bound_to 7997
  154.5588  140.2339  155.8336 H   0  0  0  0  0  0  0  0  0  0  0  0  # atno 8009 bound_to 7997
  156.2029  140.3020  155.9573 H   0  0  0  0  0  0  0  0  0  0  0  0  # atno 8010 bound_to 7997
  140.5373  143.2317  151.7154 H   0  0  0  0  0  0  0  0  0  0  0  0  # atno 10167 bound_to 10162
  156.0048  130.4608  150.3974 H   0  0  0  0  0  0  0  0  0  0  0  0  # atno 10718 bound_to 10713
  153.0007  135.5439  154.6306 H   0  0  0  0  0  0  0  0  0  0  0  0  # atno 10763 bound_to 10752
  154.5584  135.2832  155.0944 H   0  0  0  0  0  0  0  0  0  0  0  0  # atno 10764 bound_to 10752
  154.2157  135.6459  153.5181 H   0  0  0  0  0  0  0  0  0  0  0  0  # atno 10765 bound_to 10752
  140.6959  133.9031  155.8650 H   0  0  0  0  0  0  0  0  0  0  0  0  # atno 11005 bound_to 11000
  145.9453  139.2696  143.1245 LP  0  0  0  0  0  0  0  0  0  0  0  0  # atno 17320 bound_to 7965
  145.9381  140.9000  143.0322 LP  0  0  0  0  0  0  0  0  0  0  0  0  # atno 17321 bound_to 7965
  139.4975  144.4023  152.0168 LP  0  0  0  0  0  0  0  0  0  0  0  0  # atno 17342 bound_to 10162
  140.3129  144.3517  150.6029 LP  0  0  0  0  0  0  0  0  0  0  0  0  # atno 17343 bound_to 10162
  157.2045  131.0446  151.2633 LP  0  0  0  0  0  0  0  0  0  0  0  0  # atno 17370 bound_to 10713
  157.3945  130.7300  149.6722 LP  0  0  0  0  0  0  0  0  0  0  0  0  # atno 17371 bound_to 10713
  141.0203  134.0898  157.4127 LP  0  0  0  0  0  0  0  0  0  0  0  0  # atno 17394 bound_to 11000
  139.8910  135.0116  156.6768 LP  0  0  0  0  0  0  0  0  0  0  0  0  # atno 17395 bound_to 11000

$$$$
