AV-unprocessed.smi:83|AV-procd|sdf|802|dock4
  -GOLD-   2262017193D 1   1.00000     0.00000
 Structure written by MMmdl.
 56 59  0  0  0  0  0  0  0  0  1 V2000
  144.8184  137.2043  162.2236 C   0  0  0  0  0  0  0  0  0  0  0  0
  146.1842  136.7856  161.6774 C   0  0  0  0  0  0  0  0  0  0  0  0
  146.9196  137.6438  161.1904 O   0  0  0  0  0  0  0  0  0  0  0  0
  146.5357  135.4856  161.7496 N   0  0  0  0  0  0  0  0  0  0  0  0
  145.6892  134.4447  162.3265 C   0  0  0  0  0  0  0  0  0  0  0  0
  146.5197  133.1591  162.2600 C   0  0  0  0  0  0  0  0  0  0  0  0
  147.4906  133.3924  161.1031 C   0  0  1  0  0  0  0  0  0  0  0  0
  146.8379  132.9640  159.7657 C   0  0  0  0  0  0  0  0  0  0  0  0
  147.7918  132.7042  158.6860 N   0  0  0  0  0  0  0  0  0  0  0  0
  148.9358  131.8509  159.0033 C   0  0  0  0  0  0  0  0  0  0  0  0
  147.8465  133.4929  157.5696 C   0  0  0  0  0  0  0  0  0  0  0  0
  146.9280  133.2746  156.5885 N   0  0  0  0  0  0  0  0  0  0  0  0
  146.9486  133.9751  155.4525 C   0  0  0  0  0  0  0  0  0  0  0  0
  147.7942  134.9355  155.0832 N   0  0  0  0  0  0  0  0  0  0  0  0
  148.7127  135.1815  156.0582 C   0  0  0  0  0  0  0  0  0  0  0  0
  148.8083  134.5250  157.3220 C   0  0  0  0  0  0  0  0  0  0  0  0
  149.8712  135.0733  158.0343 N   0  0  0  0  0  0  0  0  0  0  0  0
  150.3842  135.9685  157.2382 C   0  0  0  0  0  0  0  0  0  0  0  0
  149.7515  136.0951  156.0262 N   0  0  0  0  0  0  0  0  0  0  0  0
  150.1202  137.0008  154.9528 C   0  0  0  0  0  0  0  0  0  0  0  0
  151.5401  137.5718  155.1350 C   0  0  1  0  0  0  0  0  0  0  0  0
  152.1675  137.6689  153.8708 O   0  0  0  0  0  0  0  0  0  0  0  0
  151.5301  138.9642  155.7912 C   0  0  2  0  0  0  0  0  0  0  0  0
  150.6874  139.0599  157.0647 C   0  0  0  0  0  0  0  0  0  0  0  0
  150.2989  140.5288  157.1320 C   0  0  0  0  0  0  0  0  0  0  0  0
  150.6136  141.0623  155.7321 C   0  0  0  0  0  0  0  0  0  0  0  0
  150.8863  139.9086  154.9496 O   0  0  0  0  0  0  0  0  0  0  0  0
  147.7684  134.8988  161.2299 C   0  0  0  0  0  0  0  0  0  0  0  0
  144.0198  136.6377  161.7442 H   0  0  0  0  0  0  0  0  0  0  0  0
  144.6376  138.2639  162.0404 H   0  0  0  0  0  0  0  0  0  0  0  0
  144.7674  137.0383  163.2991 H   0  0  0  0  0  0  0  0  0  0  0  0
  145.3961  134.6793  163.3506 H   0  0  0  0  0  0  0  0  0  0  0  0
  144.7827  134.3481  161.7267 H   0  0  0  0  0  0  0  0  0  0  0  0
  147.0829  133.0447  163.1873 H   0  0  0  0  0  0  0  0  0  0  0  0
  145.9057  132.2659  162.1392 H   0  0  0  0  0  0  0  0  0  0  0  0
  148.4076  132.8205  161.2505 H   0  0  0  0  0  0  0  0  0  0  0  0
  146.2990  132.0319  159.9388 H   0  0  0  0  0  0  0  0  0  0  0  0
  146.0573  133.6576  159.4734 H   0  0  0  0  0  0  0  0  0  0  0  0
  149.1806  131.2008  158.1626 H   0  0  0  0  0  0  0  0  0  0  0  0
  148.7233  131.2125  159.8611 H   0  0  0  0  0  0  0  0  0  0  0  0
  149.8115  132.4543  159.2452 H   0  0  0  0  0  0  0  0  0  0  0  0
  146.1817  133.7250  154.7343 H   0  0  0  0  0  0  0  0  0  0  0  0
  151.2466  136.5586  157.5126 H   0  0  0  0  0  0  0  0  0  0  0  0
  150.0323  136.4771  153.9998 H   0  0  0  0  0  0  0  0  0  0  0  0
  149.3882  137.8089  154.9308 H   0  0  0  0  0  0  0  0  0  0  0  0
  152.1266  136.8886  155.7509 H   0  0  0  0  0  0  0  0  0  0  0  0
  151.6440  137.1990  153.2397 H   0  0  0  0  0  0  0  0  0  0  0  0
  152.5489  139.3032  155.9903 H   0  0  0  0  0  0  0  0  0  0  0  0
  149.7880  138.4501  156.9686 H   0  0  0  0  0  0  0  0  0  0  0  0
  151.2268  138.7241  157.9508 H   0  0  0  0  0  0  0  0  0  0  0  0
  149.2425  140.6400  157.3786 H   0  0  0  0  0  0  0  0  0  0  0  0
  150.8781  141.0627  157.8861 H   0  0  0  0  0  0  0  0  0  0  0  0
  149.7912  141.6386  155.3080 H   0  0  0  0  0  0  0  0  0  0  0  0
  151.4999  141.6981  155.7543 H   0  0  0  0  0  0  0  0  0  0  0  0
  148.1050  135.3487  160.2993 H   0  0  0  0  0  0  0  0  0  0  0  0
  148.5565  135.0694  161.9646 H   0  0  0  0  0  0  0  0  0  0  0  0
  1  2  1  0  0  0  0
  1 29  1  0  0  0  0
  1 30  1  0  0  0  0
  1 31  1  0  0  0  0
  2  3  2  0  0  0  0
  2  4  1  0  0  0  0
  4 28  1  0  0  0  0
  4  5  1  0  0  0  0
  5  6  1  0  0  0  0
  5 32  1  0  0  0  0
  5 33  1  0  0  0  0
  6  7  1  0  0  0  0
  6 34  1  0  0  0  0
  6 35  1  0  0  0  0
  7  8  1  0  0  0  0
  7 28  1  0  0  0  0
  7 36  1  0  0  0  0
  8  9  1  0  0  0  0
  8 37  1  0  0  0  0
  8 38  1  0  0  0  0
  9 10  1  0  0  0  0
  9 11  1  0  0  0  0
 10 39  1  0  0  0  0
 10 40  1  0  0  0  0
 10 41  1  0  0  0  0
 11 16  1  0  0  0  0
 11 12  2  0  0  0  0
 12 13  1  0  0  0  0
 13 14  2  0  0  0  0
 13 42  1  0  0  0  0
 14 15  1  0  0  0  0
 15 19  1  0  0  0  0
 15 16  2  0  0  0  0
 16 17  1  0  0  0  0
 17 18  2  0  0  0  0
 18 19  1  0  0  0  0
 18 43  1  0  0  0  0
 19 20  1  0  0  0  0
 20 21  1  0  0  0  0
 20 44  1  0  0  0  0
 20 45  1  0  0  0  0
 21 22  1  0  0  0  0
 21 23  1  0  0  0  0
 21 46  1  0  0  0  0
 22 47  1  0  0  0  0
 23 27  1  0  0  0  0
 23 24  1  0  0  0  0
 23 48  1  0  0  0  0
 24 25  1  0  0  0  0
 24 49  1  0  0  0  0
 24 50  1  0  0  0  0
 25 26  1  0  0  0  0
 25 51  1  0  0  0  0
 25 52  1  0  0  0  0
 26 27  1  0  0  0  0
 26 53  1  0  0  0  0
 26 54  1  0  0  0  0
 28 55  1  0  0  0  0
 28 56  1  0  0  0  0
M  END
> <s_m_source_file>
AV-unprocessed.smi

> <i_m_source_file_index>
83

> <i_lp_mmshare_version>
43012

> <i_f3d_flags>
0

> <s_epik_input>
W0NIM11DKD1PKU4xW0NIMl1bQ0gyXVtDQEhdKFtDSDJdMSlbQ0gyXU4oW0NIM10pYyhuW2NIXW4yKWMoYzIzKW5bY0hdbjNbQ0gyXVtDQEhdKFtPSF0pW0NAQEhdNFtDSDJdW0NIMl1bQ0gyXU80

> <s_epik_cmdline>
J2VwaWtfcHl0aG9uJywgJy1waCcsICc3LjAnLCAnLXRuJywgJzgnLCAnLW1hJywgJzIwMCcsICctbWV0YWxfYmluZGluZycsICctaW1hZScsICc8aW5maWxlLm1hZT4nLCAnLW9tYWUnLCAnPG91dGZpbGUubWFlPic=

> <r_lp_tautomer_probability>
1

> <r_epik_Ionization_Penalty>
0.00109752

> <r_epik_Ionization_Penalty_Charging>
0

> <r_epik_Ionization_Penalty_Neutral>
0.00109752

> <r_epik_State_Penalty>
0.000634803

> <r_epik_Charging_Adjusted_Penalty>
0.000634803

> <i_epik_Tot_Q>
0

> <i_epik_Tot_abs_Q>
0

> <r_epik_Metal_State_Penalty>
-0

> <b_epik_Metal_Only>
0

> <s_lp_Force_Field>
OPLS_2005

> <r_lp_Energy>
53.2546

> <b_lp_Chiralities_Consistent>
1

> <s_lp_Variant>
AV-unprocessed.smi:83-3

> <Gold.Version>
5.8.1

> <Gold.Id.Protein>
6NUR|6NUR_protein|mol2

> <Gold.PLP.Fitness>
44.1878

> <Gold.PLP.PLP>
-34.2934

> <Gold.PLP.part.hbond>
-5.9854

> <Gold.PLP.part.metal>
0.0000

> <Gold.PLP.part.buried>
-3.3569

> <Gold.PLP.part.nonpolar>
-25.6562

> <Gold.PLP.part.repulsive>
0.1332

> <Gold.PLP.ligand.clash>
0.0000

> <Gold.PLP.ligand.torsion>
2.4038

> <Gold.PLP.Chemscore.Hbond>
4.7541

> <Gold.PLP.Chemscore.CHOScore>
0.0000

> <Gold.PLP.Chemscore.Metal>
0.0000

> <Gold.Chemscore.Hbonds>
donor molecule, donor type, donor heavy atom, donor atom, acceptor molecule, acceptor atom, score
      L1  H    22    47       P1  7949  0.63
      P1  H  6896  6907       L1    17  0.93
      P1  H  6931  6943       L1     3  0.19
      P1  H  6934  6947       L1     3  0.73
      P1  H  7989  7998       L1    27  0.75

> <Gold.PLP.Chemscore.Internal.Correction>
0.4395

> <Gold.Rescore>
     Score         DG    S(hbond)    S(metal)    S(lipo)     H(rot)  DE(clash)    DE(int)     intcor
     16.93     -19.49       3.61        0.00      73.95       2.62       0.23       2.33       ----

> <Gold.Chemscore.Fitness>
16.9283

> <Gold.Chemscore.DG>
-19.4929

> <Gold.Chemscore.ZeroCoef>
-5.4800

> <Gold.Chemscore.Hbond>
3.6096

> <Gold.Chemscore.Metal>
0.0000

> <Gold.Chemscore.Lipo>
73.9471

> <Gold.Chemscore.Internal_Hbond>
0.0000

> <Gold.Chemscore.DEClash>
0.2344

> <Gold.Chemscore.DEInternal>
2.3301

> <Gold.Chemscore.Rot>
2.6152

> <Gold.Chemscore.Internal.Correction>
   9.000000E+99

> <Gold.Chemscore.Hbonds>
donor molecule, donor type, donor heavy atom, donor atom, acceptor molecule, acceptor atom, score
      L1  H    22    47       P1  7949  0.59
      P1  H  6896  6907       L1    17  0.89
      P1  H  6931  6943       L1     3  0.19
      P1  H  6934  6947       L1     3  0.72
      P1  H  7989  7998       L1    27  0.09

> <Gold.Chemscore.Hbond.Weighted>
-12.0559

> <Gold.Chemscore.Metal.Weighted>
-0.0000

> <Gold.Chemscore.Lipo.Weighted>
-8.6518

> <Gold.Chemscore.Internal_Hbond.Weighted>
0.0000

> <Gold.Chemscore.DEClash.Weighted>
0.2344

> <Gold.Chemscore.DEInternal.Weighted>
2.3301

> <Gold.Chemscore.Rot.Weighted>
6.6949

> <Gold.Chemscore.Internal.Correction.Weighted>
   9.000000E+99

> <Gold.Protein.RotatedTorsions>
[ 6907 6896 6895 6894 ] final  -92.05 input  -60.11 | X-H torsion
[ 7974 7965 7964 7962 ] final  171.83 input  175.53 | X-H torsion
[ 8008 7997 7996 7995 ] final  -65.95 input   59.86 | X-H torsion
[ 10167 10162 10161 10158 ] final -149.42 input  -65.29 | X-H torsion
[ 10718 10713 10712 10709 ] final   -9.67 input   66.30 | X-H torsion
[ 10763 10752 10751 10750 ] final   20.03 input  -60.55 | X-H torsion
[ 11005 11000 10999 10996 ] final  101.97 input  -57.11 | X-H torsion

> <Gold.Protein.ActiveResidues>
 VAL166  LYS551  ARG553  GLY616  TRP617  ASP618  TYR619  PRO620  LYS621  CYS622 
 ASP623  PHE694  ASN695  SER759  ASP760  ASP761  ALA762  ILE779  LEU786  VAL792 
 PHE793  MET794  SER795  GLU796  ALA797  LYS798  CYS799  TRP800  GLU811  SER814 

> <Gold.Protein.RotatedAtoms>
  150.6900  134.2183  159.4386 H   0  0  0  0  0  0  0  0  0  0  0  0  # atno 6907 bound_to 6896
  152.0141  134.9857  160.0578 H   0  0  0  0  0  0  0  0  0  0  0  0  # atno 6908 bound_to 6896
  152.1461  133.4458  159.4827 H   0  0  0  0  0  0  0  0  0  0  0  0  # atno 6909 bound_to 6896
  144.7284  139.9408  143.6428 H   0  0  0  0  0  0  0  0  0  0  0  0  # atno 7974 bound_to 7965
  154.4703  140.0922  156.7128 H   0  0  0  0  0  0  0  0  0  0  0  0  # atno 8008 bound_to 7997
  155.4741  140.3465  155.4312 H   0  0  0  0  0  0  0  0  0  0  0  0  # atno 8009 bound_to 7997
  156.1028  140.1427  156.9433 H   0  0  0  0  0  0  0  0  0  0  0  0  # atno 8010 bound_to 7997
  139.7444  143.8613  152.2571 H   0  0  0  0  0  0  0  0  0  0  0  0  # atno 10167 bound_to 10162
  156.6847  130.5047  149.5961 H   0  0  0  0  0  0  0  0  0  0  0  0  # atno 10718 bound_to 10713
  153.1111  135.6697  153.9498 H   0  0  0  0  0  0  0  0  0  0  0  0  # atno 10763 bound_to 10752
  153.9041  135.3032  155.3450 H   0  0  0  0  0  0  0  0  0  0  0  0  # atno 10764 bound_to 10752
  154.7531  135.5025  153.9402 H   0  0  0  0  0  0  0  0  0  0  0  0  # atno 10765 bound_to 10752
  139.8775  134.9205  156.4987 H   0  0  0  0  0  0  0  0  0  0  0  0  # atno 11005 bound_to 11000
  146.0786  139.3774  143.0478 LP  0  0  0  0  0  0  0  0  0  0  0  0  # atno 17320 bound_to 7965
  145.7871  140.9831  143.1068 LP  0  0  0  0  0  0  0  0  0  0  0  0  # atno 17321 bound_to 7965
  139.8573  144.7135  150.9142 LP  0  0  0  0  0  0  0  0  0  0  0  0  # atno 17342 bound_to 10162
  140.7790  143.3848  151.1413 LP  0  0  0  0  0  0  0  0  0  0  0  0  # atno 17343 bound_to 10162
  156.1842  130.6518  151.0987 LP  0  0  0  0  0  0  0  0  0  0  0  0  # atno 17370 bound_to 10713
  157.7031  131.0768  150.6756 LP  0  0  0  0  0  0  0  0  0  0  0  0  # atno 17371 bound_to 10713
  140.8605  133.8063  155.9260 LP  0  0  0  0  0  0  0  0  0  0  0  0  # atno 17394 bound_to 11000
  140.9054  134.2327  157.5017 LP  0  0  0  0  0  0  0  0  0  0  0  0  # atno 17395 bound_to 11000

$$$$
