AV-unprocessed.smi:2068|AV-procd|sdf|8428|dock2
  -GOLD-   2272011123D 1   1.00000     0.00000
 Structure written by MMmdl.
 33 34  0  0  0  0  0  0  0  0  1 V2000
  150.5946  135.6771  154.4744 N   0  0  0  0  0  0  0  0  0  0  0  0
  151.5168  136.5072  154.9694 C   0  0  0  0  0  0  0  0  0  0  0  0
  152.0190  136.3462  156.0799 O   0  0  0  0  0  0  0  0  0  0  0  0
  151.9382  137.6868  154.0911 C   0  0  0  0  0  0  0  0  0  0  0  0
  151.3502  138.9636  154.6176 C   0  0  0  0  0  0  0  0  0  0  0  0
  150.5880  139.8699  153.9204 C   0  0  0  0  0  0  0  0  0  0  0  0
  150.1066  141.2209  154.9115 S   0  0  0  0  0  0  0  0  0  0  0  0
  150.9718  140.4928  156.2557 C   0  0  0  0  0  0  0  0  0  0  0  0
  151.0304  141.1073  157.5337 N   0  0  0  0  0  0  0  0  0  0  0  0
  152.0173  141.0402  158.4468 C   0  0  0  0  0  0  0  0  0  0  0  0
  153.0534  140.3884  158.3110 O   0  0  0  0  0  0  0  0  0  0  0  0
  151.7932  141.8441  159.7328 C   0  0  0  0  0  0  0  0  0  0  0  0
  152.6809  143.1036  159.8364 C   0  0  1  0  0  0  0  0  0  0  0  0
  152.6373  143.9763  158.6050 C   0  0  0  0  0  0  0  0  0  0  0  0
  152.3096  145.2367  158.8785 C   0  0  0  0  0  0  0  0  0  0  0  0
  152.0658  145.4636  160.3445 C   0  0  0  0  0  0  0  0  0  0  0  0
  152.2443  144.0633  160.9732 C   0  0  0  0  0  0  0  0  0  0  0  0
  151.5561  139.3286  155.9523 N   0  0  0  0  0  0  0  0  0  0  0  0
  150.2782  134.8922  155.0250 H   0  0  0  0  0  0  0  0  0  0  0  0
  150.2081  135.8441  153.5564 H   0  0  0  0  0  0  0  0  0  0  0  0
  153.0272  137.7464  154.0707 H   0  0  0  0  0  0  0  0  0  0  0  0
  151.6219  137.5062  153.0626 H   0  0  0  0  0  0  0  0  0  0  0  0
  150.2849  139.8252  152.8848 H   0  0  0  0  0  0  0  0  0  0  0  0
  150.2362  141.6820  157.7756 H   0  0  0  0  0  0  0  0  0  0  0  0
  150.7424  142.1294  159.8085 H   0  0  0  0  0  0  0  0  0  0  0  0
  151.9935  141.1859  160.5788 H   0  0  0  0  0  0  0  0  0  0  0  0
  153.7203  142.8108  159.9934 H   0  0  0  0  0  0  0  0  0  0  0  0
  152.8672  143.5976  157.6197 H   0  0  0  0  0  0  0  0  0  0  0  0
  152.2298  146.0312  158.1514 H   0  0  0  0  0  0  0  0  0  0  0  0
  152.7894  146.1786  160.7370 H   0  0  0  0  0  0  0  0  0  0  0  0
  151.0619  145.8565  160.5085 H   0  0  0  0  0  0  0  0  0  0  0  0
  151.3053  143.7382  161.4232 H   0  0  0  0  0  0  0  0  0  0  0  0
  152.9869  144.0849  161.7718 H   0  0  0  0  0  0  0  0  0  0  0  0
  1  2  1  0  0  0  0
  1 19  1  0  0  0  0
  1 20  1  0  0  0  0
  2  3  2  0  0  0  0
  2  4  1  0  0  0  0
  4  5  1  0  0  0  0
  4 21  1  0  0  0  0
  4 22  1  0  0  0  0
  5 18  1  0  0  0  0
  5  6  2  0  0  0  0
  6  7  1  0  0  0  0
  6 23  1  0  0  0  0
  7  8  1  0  0  0  0
  8  9  1  0  0  0  0
  8 18  2  0  0  0  0
  9 10  1  0  0  0  0
  9 24  1  0  0  0  0
 10 11  2  0  0  0  0
 10 12  1  0  0  0  0
 12 13  1  0  0  0  0
 12 25  1  0  0  0  0
 12 26  1  0  0  0  0
 13 17  1  0  0  0  0
 13 14  1  0  0  0  0
 13 27  1  0  0  0  0
 14 15  2  0  0  0  0
 14 28  1  0  0  0  0
 15 16  1  0  0  0  0
 15 29  1  0  0  0  0
 16 17  1  0  0  0  0
 16 30  1  0  0  0  0
 16 31  1  0  0  0  0
 17 32  1  0  0  0  0
 17 33  1  0  0  0  0
M  END
> <s_m_source_file>
AV-unprocessed.smi

> <i_m_source_file_index>
2068

> <i_lp_mmshare_version>
43012

> <i_f3d_flags>
0

> <s_epik_input>
W05IMl1DKD1PKVtDSDJdYzFbY0hdc2MobjEpW05IXUMoPU8pW0NIMl1bQ0BASF0yW0NIXT1bQ0hdW0NIMl1bQ0gyXTI=

> <s_epik_cmdline>
J2VwaWtfcHl0aG9uJywgJy1waCcsICc3LjAnLCAnLXRuJywgJzgnLCAnLW1hJywgJzIwMCcsICctbWV0YWxfYmluZGluZycsICctaW1hZScsICc8aW5maWxlLm1hZT4nLCAnLW9tYWUnLCAnPG91dGZpbGUubWFlPic=

> <r_lp_tautomer_probability>
1

> <r_epik_Ionization_Penalty>
0.000253249

> <r_epik_Ionization_Penalty_Charging>
0

> <r_epik_Ionization_Penalty_Neutral>
0.000253249

> <r_epik_State_Penalty>
-0

> <r_epik_Charging_Adjusted_Penalty>
0

> <i_epik_Tot_Q>
0

> <i_epik_Tot_abs_Q>
0

> <r_epik_Metal_State_Penalty>
0.148671

> <b_epik_Metal_Only>
0

> <s_lp_Force_Field>
OPLS_2005

> <r_lp_Energy>
16.4011

> <b_lp_Chiralities_Consistent>
1

> <s_lp_Variant>
AV-unprocessed.smi:2068-2

> <Gold.Version>
5.8.1

> <Gold.Id.Protein>
6NUR|6NUR_protein|mol2

> <Gold.PLP.Fitness>
49.1333

> <Gold.PLP.PLP>
-38.7664

> <Gold.PLP.part.hbond>
-3.0988

> <Gold.PLP.part.metal>
0.0000

> <Gold.PLP.part.buried>
-0.3934

> <Gold.PLP.part.nonpolar>
-35.9061

> <Gold.PLP.part.repulsive>
0.1536

> <Gold.PLP.ligand.clash>
0.0000

> <Gold.PLP.ligand.torsion>
0.5928

> <Gold.PLP.Chemscore.Hbond>
2.8320

> <Gold.PLP.Chemscore.CHOScore>
1.0000

> <Gold.PLP.Chemscore.Metal>
0.0000

> <Gold.Chemscore.Hbonds>
donor molecule, donor type, donor heavy atom, donor atom, acceptor molecule, acceptor atom, score
      L1  H     1    20       P1  7948  0.25
      P1  H  7997  8009       L1    11  0.84
      P1  H 10752 10763       L1     3  0.05
      L1  C     6    23       P1  7957  0.56

> <Gold.PLP.Chemscore.Internal.Correction>
0.0564

> <Gold.Rescore>
     Score         DG    S(hbond)    S(metal)    S(lipo)     H(rot)  DE(clash)    DE(int)     intcor
     16.87     -20.08       2.61        0.00      98.60       2.21       1.41       1.81       ----

> <Gold.Chemscore.Fitness>
16.8715

> <Gold.Chemscore.DG>
-20.0848

> <Gold.Chemscore.ZeroCoef>
-5.4800

> <Gold.Chemscore.Hbond>
2.6090

> <Gold.Chemscore.Metal>
0.0000

> <Gold.Chemscore.Lipo>
98.6018

> <Gold.Chemscore.Internal_Hbond>
0.0000

> <Gold.Chemscore.DEClash>
1.4079

> <Gold.Chemscore.DEInternal>
1.8054

> <Gold.Chemscore.Rot>
2.2053

> <Gold.Chemscore.Internal.Correction>
   9.000000E+99

> <Gold.Chemscore.Hbonds>
donor molecule, donor type, donor heavy atom, donor atom, acceptor molecule, acceptor atom, score
      P1  H  7997  8009       L1    11  0.78

> <Gold.Chemscore.Hbond.Weighted>
-8.7140

> <Gold.Chemscore.Metal.Weighted>
-0.0000

> <Gold.Chemscore.Lipo.Weighted>
-11.5364

> <Gold.Chemscore.Internal_Hbond.Weighted>
0.0000

> <Gold.Chemscore.DEClash.Weighted>
1.4079

> <Gold.Chemscore.DEInternal.Weighted>
1.8054

> <Gold.Chemscore.Rot.Weighted>
5.6456

> <Gold.Chemscore.Internal.Correction.Weighted>
   9.000000E+99

> <Gold.Protein.RotatedTorsions>
[ 6907 6896 6895 6894 ] final  -73.83 input  -60.11 | X-H torsion
[ 7974 7965 7964 7962 ] final  155.62 input  175.53 | X-H torsion
[ 8008 7997 7996 7995 ] final  162.84 input   59.86 | X-H torsion
[ 10167 10162 10161 10158 ] final  -31.49 input  -65.29 | X-H torsion
[ 10718 10713 10712 10709 ] final -100.17 input   66.30 | X-H torsion
[ 10763 10752 10751 10750 ] final   94.43 input  -60.55 | X-H torsion
[ 11005 11000 10999 10996 ] final  -73.24 input  -57.11 | X-H torsion

> <Gold.Protein.ActiveResidues>
 VAL166  LYS551  ARG553  GLY616  TRP617  ASP618  TYR619  PRO620  LYS621  CYS622 
 ASP623  PHE694  ASN695  SER759  ASP760  ASP761  ALA762  ILE779  LEU786  VAL792 
 PHE793  MET794  SER795  GLU796  ALA797  LYS798  CYS799  TRP800  GLU811  SER814 

> <Gold.Protein.RotatedAtoms>
  150.7115  134.4959  159.5537 H   0  0  0  0  0  0  0  0  0  0  0  0  # atno 6907 bound_to 6896
  152.2567  134.8074  160.0446 H   0  0  0  0  0  0  0  0  0  0  0  0  # atno 6908 bound_to 6896
  151.8802  133.3458  159.3800 H   0  0  0  0  0  0  0  0  0  0  0  0  # atno 6909 bound_to 6896
  144.8014  139.7092  143.6180 H   0  0  0  0  0  0  0  0  0  0  0  0  # atno 7974 bound_to 7965
  156.2002  140.1739  156.7916 H   0  0  0  0  0  0  0  0  0  0  0  0  # atno 8008 bound_to 7997
  154.5581  140.0705  156.8807 H   0  0  0  0  0  0  0  0  0  0  0  0  # atno 8009 bound_to 7997
  155.2900  140.3354  155.4255 H   0  0  0  0  0  0  0  0  0  0  0  0  # atno 8010 bound_to 7997
  140.7235  143.3766  151.1677 H   0  0  0  0  0  0  0  0  0  0  0  0  # atno 10167 bound_to 10162
  156.0155  130.5316  150.6778 H   0  0  0  0  0  0  0  0  0  0  0  0  # atno 10718 bound_to 10713
  153.2416  135.4290  155.0704 H   0  0  0  0  0  0  0  0  0  0  0  0  # atno 10763 bound_to 10752
  154.8343  135.3404  154.6641 H   0  0  0  0  0  0  0  0  0  0  0  0  # atno 10764 bound_to 10752
  153.7064  135.7025  153.5105 H   0  0  0  0  0  0  0  0  0  0  0  0  # atno 10765 bound_to 10752
  141.1620  133.6872  156.7182 H   0  0  0  0  0  0  0  0  0  0  0  0  # atno 11005 bound_to 11000
  146.2296  139.5788  142.9564 LP  0  0  0  0  0  0  0  0  0  0  0  0  # atno 17320 bound_to 7965
  145.5545  141.0410  143.2260 LP  0  0  0  0  0  0  0  0  0  0  0  0  # atno 17321 bound_to 7965
  139.7348  143.9016  152.3031 LP  0  0  0  0  0  0  0  0  0  0  0  0  # atno 17342 bound_to 10162
  139.8818  144.7014  150.8870 LP  0  0  0  0  0  0  0  0  0  0  0  0  # atno 17343 bound_to 10162
  157.4487  131.0870  151.0868 LP  0  0  0  0  0  0  0  0  0  0  0  0  # atno 17370 bound_to 10713
  157.1391  130.6135  149.5550 LP  0  0  0  0  0  0  0  0  0  0  0  0  # atno 17371 bound_to 10713
  140.2836  134.8297  157.3955 LP  0  0  0  0  0  0  0  0  0  0  0  0  # atno 17394 bound_to 11000
  140.1410  134.4971  155.8031 LP  0  0  0  0  0  0  0  0  0  0  0  0  # atno 17395 bound_to 11000

$$$$
