AV-unprocessed.smi:1393|AV-procd|sdf|5663|dock3
  -GOLD-   22720 5283D 1   1.00000     0.00000
 Structure written by MMmdl.
 39 40  0  0  0  0  0  0  0  0  1 V2000
  150.5927  140.7454  157.7814 O   0  0  0  0  0  0  0  0  0  0  0  0
  150.5897  141.8856  157.3148 C   0  0  0  0  0  0  0  0  0  0  0  0
  151.5156  142.9749  157.8753 C   0  0  0  0  0  0  0  0  0  0  0  0
  152.1534  142.6092  159.1518 N   0  0  0  0  0  0  0  0  0  0  0  0
  151.9422  143.4766  160.2383 C   0  0  0  0  0  0  0  0  0  0  0  0
  152.4718  143.2374  161.4454 C   0  0  0  0  0  0  0  0  0  0  0  0
  153.2732  142.0500  161.6154 C   0  0  0  0  0  0  0  0  0  0  0  0
  153.4940  141.1962  160.5888 C   0  0  0  0  0  0  0  0  0  0  0  0
  154.3274  139.9276  160.7559 C   0  0  0  0  0  0  0  0  0  0  0  0
  155.4018  139.9697  159.9672 F   0  0  0  0  0  0  0  0  0  0  0  0
  154.7488  139.7740  162.0120 F   0  0  0  0  0  0  0  0  0  0  0  0
  153.6147  138.8477  160.4322 F   0  0  0  0  0  0  0  0  0  0  0  0
  152.9092  141.4726  159.2606 C   0  0  0  0  0  0  0  0  0  0  0  0
  153.0852  140.7283  158.2943 O   0  0  0  0  0  0  0  0  0  0  0  0
  149.7894  142.2656  156.3071 N   0  0  0  0  0  0  0  0  0  0  0  0
  148.8173  141.4171  155.6176 C   0  0  2  0  0  0  0  0  0  0  0  0
  147.8423  140.7664  156.6349 C   0  0  0  0  0  0  0  0  0  0  0  0
  147.2208  139.4171  156.2171 C   0  0  0  0  0  0  0  0  0  0  0  0
  146.4773  139.4170  154.8660 C   0  0  0  0  0  0  0  0  0  0  0  0
  147.2641  139.9452  153.6437 C   0  0  0  0  0  0  0  0  0  0  0  0
  148.7139  139.7927  153.7561 N   0  0  0  0  0  0  0  0  0  0  0  0
  149.4974  140.4484  154.6298 C   0  0  0  0  0  0  0  0  0  0  0  0
  150.7150  140.2723  154.6567 O   0  0  0  0  0  0  0  0  0  0  0  0
  152.2762  143.2139  157.1295 H   0  0  0  0  0  0  0  0  0  0  0  0
  150.9333  143.8905  157.9885 H   0  0  0  0  0  0  0  0  0  0  0  0
  151.3237  144.3374  160.0299 H   0  0  0  0  0  0  0  0  0  0  0  0
  152.2991  143.9124  162.2707 H   0  0  0  0  0  0  0  0  0  0  0  0
  153.6947  141.8516  162.5894 H   0  0  0  0  0  0  0  0  0  0  0  0
  149.8468  143.2242  155.9943 H   0  0  0  0  0  0  0  0  0  0  0  0
  148.2290  142.0863  154.9882 H   0  0  0  0  0  0  0  0  0  0  0  0
  148.3632  140.6040  157.5797 H   0  0  0  0  0  0  0  0  0  0  0  0
  147.0444  141.4750  156.8610 H   0  0  0  0  0  0  0  0  0  0  0  0
  147.9979  138.6515  156.2008 H   0  0  0  0  0  0  0  0  0  0  0  0
  146.5278  139.0964  156.9954 H   0  0  0  0  0  0  0  0  0  0  0  0
  146.1709  138.3906  154.6604 H   0  0  0  0  0  0  0  0  0  0  0  0
  145.5505  139.9838  154.9595 H   0  0  0  0  0  0  0  0  0  0  0  0
  146.9313  139.4266  152.7444 H   0  0  0  0  0  0  0  0  0  0  0  0
  147.0262  140.9955  153.4718 H   0  0  0  0  0  0  0  0  0  0  0  0
  149.1567  139.1488  153.1166 H   0  0  0  0  0  0  0  0  0  0  0  0
  1  2  2  0  0  0  0
  2  3  1  0  0  0  0
  2 15  1  0  0  0  0
  3  4  1  0  0  0  0
  3 24  1  0  0  0  0
  3 25  1  0  0  0  0
  4 13  1  0  0  0  0
  4  5  1  0  0  0  0
  5  6  2  0  0  0  0
  5 26  1  0  0  0  0
  6  7  1  0  0  0  0
  6 27  1  0  0  0  0
  7  8  2  0  0  0  0
  7 28  1  0  0  0  0
  8  9  1  0  0  0  0
  8 13  1  0  0  0  0
  9 10  1  0  0  0  0
  9 11  1  0  0  0  0
  9 12  1  0  0  0  0
 13 14  2  0  0  0  0
 15 16  1  0  0  0  0
 15 29  1  0  0  0  0
 16 22  1  0  0  0  0
 16 17  1  0  0  0  0
 16 30  1  0  0  0  0
 17 18  1  0  0  0  0
 17 31  1  0  0  0  0
 17 32  1  0  0  0  0
 18 19  1  0  0  0  0
 18 33  1  0  0  0  0
 18 34  1  0  0  0  0
 19 20  1  0  0  0  0
 19 35  1  0  0  0  0
 19 36  1  0  0  0  0
 20 21  1  0  0  0  0
 20 37  1  0  0  0  0
 20 38  1  0  0  0  0
 21 22  1  0  0  0  0
 21 39  1  0  0  0  0
 22 23  2  0  0  0  0
M  END
> <s_m_source_file>
AV-unprocessed.smi

> <i_m_source_file_index>
1393

> <i_lp_mmshare_version>
43012

> <i_f3d_flags>
0

> <s_epik_input>
RkMoRikoRiljKGMxPU8pW2NIXVtjSF1bY0hdbjFbQ0gyXUMoPU8pW05IXVtDQEBIXTJbQ0gyXVtDSDJdW0NIMl1bQ0gyXVtOSF1DMj1P

> <s_epik_cmdline>
J2VwaWtfcHl0aG9uJywgJy1waCcsICc3LjAnLCAnLXRuJywgJzgnLCAnLW1hJywgJzIwMCcsICctbWV0YWxfYmluZGluZycsICctaW1hZScsICc8aW5maWxlLm1hZT4nLCAnLW9tYWUnLCAnPG91dGZpbGUubWFlPic=

> <r_lp_tautomer_probability>
1

> <r_epik_Ionization_Penalty>
5.5009e-08

> <r_epik_Ionization_Penalty_Charging>
1.68727e-09

> <r_epik_Ionization_Penalty_Neutral>
5.33217e-08

> <r_epik_State_Penalty>
-0

> <r_epik_Charging_Adjusted_Penalty>
1.68727e-09

> <i_epik_Tot_Q>
0

> <i_epik_Tot_abs_Q>
0

> <r_epik_Metal_State_Penalty>
-0

> <b_epik_Metal_Only>
0

> <s_lp_Force_Field>
OPLS_2005

> <r_lp_Energy>
24.6208

> <b_lp_Chiralities_Consistent>
1

> <s_lp_Variant>
AV-unprocessed.smi:1393-1

> <Gold.Version>
5.8.1

> <Gold.Id.Protein>
6NUR|6NUR_protein|mol2

> <Gold.PLP.Fitness>
51.2268

> <Gold.PLP.PLP>
-43.2292

> <Gold.PLP.part.hbond>
-3.9553

> <Gold.PLP.part.metal>
0.0000

> <Gold.PLP.part.buried>
-3.4304

> <Gold.PLP.part.nonpolar>
-35.8767

> <Gold.PLP.part.repulsive>
0.2807

> <Gold.PLP.ligand.clash>
0.3151

> <Gold.PLP.ligand.torsion>
0.2879

> <Gold.PLP.Chemscore.Hbond>
2.8324

> <Gold.PLP.Chemscore.CHOScore>
0.0000

> <Gold.PLP.Chemscore.Metal>
0.0000

> <Gold.Chemscore.Hbonds>
donor molecule, donor type, donor heavy atom, donor atom, acceptor molecule, acceptor atom, score
      L1  H    15    29       P1  8028  0.90
      L1  H    21    39       P1  7957  0.16
      P1  H  7989  7998       L1    23  1.00
      P1  H  7997  8008       L1    14  0.61

> <Gold.PLP.Chemscore.Internal.Correction>
0.3912

> <Gold.Rescore>
     Score         DG    S(hbond)    S(metal)    S(lipo)     H(rot)  DE(clash)    DE(int)     intcor
     11.92     -20.48       3.17        0.00      75.49       1.72       0.31       8.25       ----

> <Gold.Chemscore.Fitness>
11.9207

> <Gold.Chemscore.DG>
-20.4772

> <Gold.Chemscore.ZeroCoef>
-5.4800

> <Gold.Chemscore.Hbond>
3.1651

> <Gold.Chemscore.Metal>
0.0000

> <Gold.Chemscore.Lipo>
75.4877

> <Gold.Chemscore.Internal_Hbond>
0.0000

> <Gold.Chemscore.DEClash>
0.3052

> <Gold.Chemscore.DEInternal>
8.2513

> <Gold.Chemscore.Rot>
1.7212

> <Gold.Chemscore.Internal.Correction>
   9.000000E+99

> <Gold.Chemscore.Hbonds>
donor molecule, donor type, donor heavy atom, donor atom, acceptor molecule, acceptor atom, score
      L1  H    15    29       P1  8028  0.88
      L1  H    21    39       P1  7957  0.17
      P1  H  7989  7998       L1    23  0.96
      P1  H  7997  8008       L1    14  0.59

> <Gold.Chemscore.Hbond.Weighted>
-10.5714

> <Gold.Chemscore.Metal.Weighted>
-0.0000

> <Gold.Chemscore.Lipo.Weighted>
-8.8321

> <Gold.Chemscore.Internal_Hbond.Weighted>
0.0000

> <Gold.Chemscore.DEClash.Weighted>
0.3052

> <Gold.Chemscore.DEInternal.Weighted>
8.2513

> <Gold.Chemscore.Rot.Weighted>
4.4062

> <Gold.Chemscore.Internal.Correction.Weighted>
   9.000000E+99

> <Gold.Protein.RotatedTorsions>
[ 6907 6896 6895 6894 ] final   97.77 input  -60.11 | X-H torsion
[ 7974 7965 7964 7962 ] final   63.91 input  175.53 | X-H torsion
[ 8008 7997 7996 7995 ] final  -82.40 input   59.86 | X-H torsion
[ 10167 10162 10161 10158 ] final  101.88 input  -65.29 | X-H torsion
[ 10718 10713 10712 10709 ] final  -34.19 input   66.30 | X-H torsion
[ 10763 10752 10751 10750 ] final   10.41 input  -60.55 | X-H torsion
[ 11005 11000 10999 10996 ] final -136.44 input  -57.11 | X-H torsion

> <Gold.Protein.ActiveResidues>
 VAL166  LYS551  ARG553  GLY616  TRP617  ASP618  TYR619  PRO620  LYS621  CYS622 
 ASP623  PHE694  ASN695  SER759  ASP760  ASP761  ALA762  ILE779  LEU786  VAL792 
 PHE793  MET794  SER795  GLU796  ALA797  LYS798  CYS799  TRP800  GLU811  SER814 

> <Gold.Protein.RotatedAtoms>
  152.5419  134.0682  159.8182 H   0  0  0  0  0  0  0  0  0  0  0  0  # atno 6907 bound_to 6896
  151.0800  133.5390  159.2628 H   0  0  0  0  0  0  0  0  0  0  0  0  # atno 6908 bound_to 6896
  151.2220  135.0531  159.9008 H   0  0  0  0  0  0  0  0  0  0  0  0  # atno 6909 bound_to 6896
  145.8564  139.3286  143.0845 H   0  0  0  0  0  0  0  0  0  0  0  0  # atno 7974 bound_to 7965
  154.6082  140.0633  156.9459 H   0  0  0  0  0  0  0  0  0  0  0  0  # atno 8008 bound_to 7997
  155.2017  140.3315  155.4324 H   0  0  0  0  0  0  0  0  0  0  0  0  # atno 8009 bound_to 7997
  156.2361  140.1863  156.7099 H   0  0  0  0  0  0  0  0  0  0  0  0  # atno 8010 bound_to 7997
  139.7399  144.7014  151.0592 H   0  0  0  0  0  0  0  0  0  0  0  0  # atno 10167 bound_to 10162
  156.3535  130.4312  149.7684 H   0  0  0  0  0  0  0  0  0  0  0  0  # atno 10718 bound_to 10713
  153.2035  135.6859  153.8202 H   0  0  0  0  0  0  0  0  0  0  0  0  # atno 10763 bound_to 10752
  153.7460  135.3231  155.3314 H   0  0  0  0  0  0  0  0  0  0  0  0  # atno 10764 bound_to 10752
  154.8184  135.4669  154.0811 H   0  0  0  0  0  0  0  0  0  0  0  0  # atno 10765 bound_to 10752
  140.8804  134.1938  157.4594 H   0  0  0  0  0  0  0  0  0  0  0  0  # atno 11005 bound_to 11000
  145.9299  140.9056  143.0362 LP  0  0  0  0  0  0  0  0  0  0  0  0  # atno 17320 bound_to 7965
  144.6727  140.1404  143.7437 LP  0  0  0  0  0  0  0  0  0  0  0  0  # atno 17321 bound_to 7965
  140.7784  143.4938  150.9859 LP  0  0  0  0  0  0  0  0  0  0  0  0  # atno 17342 bound_to 10162
  139.8626  143.7295  152.3172 LP  0  0  0  0  0  0  0  0  0  0  0  0  # atno 17343 bound_to 10162
  156.4875  130.8070  151.3081 LP  0  0  0  0  0  0  0  0  0  0  0  0  # atno 17370 bound_to 10713
  157.7464  130.9986  150.2858 LP  0  0  0  0  0  0  0  0  0  0  0  0  # atno 17371 bound_to 10713
  139.8719  134.9815  156.5117 LP  0  0  0  0  0  0  0  0  0  0  0  0  # atno 17394 bound_to 11000
  140.8467  133.8163  155.9128 LP  0  0  0  0  0  0  0  0  0  0  0  0  # atno 17395 bound_to 11000

$$$$
