AV-unprocessed.smi:287|AV-procd|sdf|2206|dock9
  -GOLD-   2262022 33D 1   1.00000     0.00000
 Structure written by MMmdl.
 55 58  0  0  0  0  0  0  0  0  1 V2000
  156.2387  129.9955  153.8314 C   0  0  0  0  0  0  0  0  0  0  0  0
  154.9378  130.1011  154.5503 C   0  0  0  0  0  0  0  0  0  0  0  0
  153.7260  129.4912  154.4051 C   0  0  0  0  0  0  0  0  0  0  0  0
  152.8625  130.0129  155.4141 C   0  0  0  0  0  0  0  0  0  0  0  0
  151.4100  129.6127  155.6371 C   0  0  2  0  0  0  0  0  0  0  0  0
  150.7310  130.6125  156.5883 C   0  0  0  0  0  0  0  0  0  0  0  0
  151.2759  128.3523  156.2649 O   0  0  0  0  0  0  0  0  0  0  0  0
  150.6184  129.5172  154.3131 C   0  0  0  0  0  0  0  0  0  0  0  0
  149.2028  129.2280  154.5183 N   0  0  0  0  0  0  0  0  0  0  0  0
  148.2875  130.2147  154.4226 C   0  0  0  0  0  0  0  0  0  0  0  0
  148.1842  131.1696  155.3832 N   0  0  0  0  0  0  0  0  0  0  0  0
  147.2705  132.1372  155.2648 C   0  0  0  0  0  0  0  0  0  0  0  0
  146.3822  132.3303  154.2877 N   0  0  0  0  0  0  0  0  0  0  0  0
  146.4818  131.3747  153.3186 C   0  0  0  0  0  0  0  0  0  0  0  0
  147.4027  130.2898  153.3162 C   0  0  0  0  0  0  0  0  0  0  0  0
  147.2174  129.5156  152.1789 N   0  0  0  0  0  0  0  0  0  0  0  0
  146.2421  130.1118  151.5481 C   0  0  0  0  0  0  0  0  0  0  0  0
  145.7379  131.2372  152.1620 N   0  0  0  0  0  0  0  0  0  0  0  0
  144.6247  132.1125  151.6676 C   0  0  2  0  0  0  0  0  0  0  0  0
  144.2652  131.7275  150.3724 O   0  0  0  0  0  0  0  0  0  0  0  0
  144.4449  132.8094  149.4578 C   0  0  1  0  0  0  0  0  0  0  0  0
  143.3970  132.7239  148.3372 C   0  0  0  0  0  0  0  0  0  0  0  0
  143.4477  133.8840  147.5349 O   0  0  0  0  0  0  0  0  0  0  0  0
  144.2839  134.0392  150.3531 C   0  0  2  0  0  0  0  0  0  0  0  0
  144.8256  135.2198  149.7925 O   0  0  0  0  0  0  0  0  0  0  0  0
  144.9947  133.6075  151.6275 C   0  0  2  0  0  0  0  0  0  0  0  0
  146.3935  133.8478  151.5797 O   0  0  0  0  0  0  0  0  0  0  0  0
  153.6327  130.9225  156.0989 C   0  0  0  0  0  0  0  0  0  0  0  0
  153.3840  131.8317  157.2573 C   0  0  0  0  0  0  0  0  0  0  0  0
  154.8922  130.9799  155.5826 O   0  0  0  0  0  0  0  0  0  0  0  0
  143.7908  131.9025  152.3386 H   0  0  0  0  0  0  0  0  0  0  0  0
  145.4577  132.7865  149.0516 H   0  0  0  0  0  0  0  0  0  0  0  0
  143.2259  134.1999  150.5667 H   0  0  0  0  0  0  0  0  0  0  0  0
  144.5904  134.1086  152.5076 H   0  0  0  0  0  0  0  0  0  0  0  0
  156.1995  129.2180  153.0683 H   0  0  0  0  0  0  0  0  0  0  0  0
  157.0440  129.7487  154.5234 H   0  0  0  0  0  0  0  0  0  0  0  0
  156.4875  130.9373  153.3423 H   0  0  0  0  0  0  0  0  0  0  0  0
  153.4850  128.7470  153.6605 H   0  0  0  0  0  0  0  0  0  0  0  0
  150.7425  131.6219  156.1758 H   0  0  0  0  0  0  0  0  0  0  0  0
  151.2372  130.6476  157.5541 H   0  0  0  0  0  0  0  0  0  0  0  0
  149.6888  130.3471  156.7705 H   0  0  0  0  0  0  0  0  0  0  0  0
  150.8353  128.4749  157.0917 H   0  0  0  0  0  0  0  0  0  0  0  0
  150.7421  130.4235  153.7183 H   0  0  0  0  0  0  0  0  0  0  0  0
  151.0276  128.6973  153.7209 H   0  0  0  0  0  0  0  0  0  0  0  0
  148.9661  128.2583  154.6746 H   0  0  0  0  0  0  0  0  0  0  0  0
  147.2475  132.8605  156.0663 H   0  0  0  0  0  0  0  0  0  0  0  0
  145.8585  129.7418  150.6083 H   0  0  0  0  0  0  0  0  0  0  0  0
  143.5400  131.8321  147.7261 H   0  0  0  0  0  0  0  0  0  0  0  0
  142.3952  132.6668  148.7640 H   0  0  0  0  0  0  0  0  0  0  0  0
  144.3477  134.0454  147.2958 H   0  0  0  0  0  0  0  0  0  0  0  0
  145.3052  134.9824  149.0127 H   0  0  0  0  0  0  0  0  0  0  0  0
  146.8245  133.0530  151.3046 H   0  0  0  0  0  0  0  0  0  0  0  0
  152.5538  132.5061  157.0480 H   0  0  0  0  0  0  0  0  0  0  0  0
  154.2616  132.4395  157.4781 H   0  0  0  0  0  0  0  0  0  0  0  0
  153.1398  131.2589  158.1519 H   0  0  0  0  0  0  0  0  0  0  0  0
  1  2  1  0  0  0  0
  1 35  1  0  0  0  0
  1 36  1  0  0  0  0
  1 37  1  0  0  0  0
  2 30  1  0  0  0  0
  2  3  2  0  0  0  0
  3  4  1  0  0  0  0
  3 38  1  0  0  0  0
  4  5  1  0  0  0  0
  4 28  2  0  0  0  0
  5  6  1  0  0  0  0
  5  7  1  0  0  0  0
  5  8  1  0  0  0  0
  6 39  1  0  0  0  0
  6 40  1  0  0  0  0
  6 41  1  0  0  0  0
  7 42  1  0  0  0  0
  8  9  1  0  0  0  0
  8 43  1  0  0  0  0
  8 44  1  0  0  0  0
  9 10  1  0  0  0  0
  9 45  1  0  0  0  0
 10 15  1  0  0  0  0
 10 11  2  0  0  0  0
 11 12  1  0  0  0  0
 12 13  2  0  0  0  0
 12 46  1  0  0  0  0
 13 14  1  0  0  0  0
 14 18  1  0  0  0  0
 14 15  2  0  0  0  0
 15 16  1  0  0  0  0
 16 17  2  0  0  0  0
 17 18  1  0  0  0  0
 17 47  1  0  0  0  0
 18 19  1  0  0  0  0
 19 31  1  0  0  0  0
 19 26  1  0  0  0  0
 19 20  1  0  0  0  0
 20 21  1  0  0  0  0
 21 32  1  0  0  0  0
 21 22  1  0  0  0  0
 21 24  1  0  0  0  0
 22 23  1  0  0  0  0
 22 48  1  0  0  0  0
 22 49  1  0  0  0  0
 23 50  1  0  0  0  0
 24 33  1  0  0  0  0
 24 25  1  0  0  0  0
 24 26  1  0  0  0  0
 25 51  1  0  0  0  0
 26 34  1  0  0  0  0
 26 27  1  0  0  0  0
 27 52  1  0  0  0  0
 28 29  1  0  0  0  0
 28 30  1  0  0  0  0
 29 53  1  0  0  0  0
 29 54  1  0  0  0  0
 29 55  1  0  0  0  0
M  END
> <s_m_source_file>
AV-unprocessed.smi

> <i_m_source_file_index>
287

> <i_lp_mmshare_version>
43012

> <i_f3d_flags>
0

> <s_epik_input>
W0NIM11jMVtjSF1jKGMobzEpW0NIM10pW0NAQF0oW0NIM10pKFtPSF0pW0NIMl1bTkhdYyhuW2NIXW4yKWMoYzIzKW5bY0hdbjNbQ0BASF00T1tDQEhdKFtDSDJdW09IXSlbQ0BASF0oW09IXSlbQ0BIXTRbT0hd

> <s_epik_cmdline>
J2VwaWtfcHl0aG9uJywgJy1waCcsICc3LjAnLCAnLXRuJywgJzgnLCAnLW1hJywgJzIwMCcsICctbWV0YWxfYmluZGluZycsICctaW1hZScsICc8aW5maWxlLm1hZT4nLCAnLW9tYWUnLCAnPG91dGZpbGUubWFlPic=

> <r_lp_tautomer_probability>
1

> <r_epik_Ionization_Penalty>
0.000992612

> <r_epik_Ionization_Penalty_Charging>
0

> <r_epik_Ionization_Penalty_Neutral>
0.000992612

> <r_epik_State_Penalty>
-0

> <r_epik_Charging_Adjusted_Penalty>
0

> <i_epik_Tot_Q>
0

> <i_epik_Tot_abs_Q>
0

> <r_epik_Metal_State_Penalty>
-0

> <b_epik_Metal_Only>
0

> <s_epik_Chemistry_Notes>
This compound contains an acetal/aminal-like group ( X-CH(R)-Y where X, Y are N, S, or O) that may be acid/base labile, releasing an aldehyde.

> <s_lp_Force_Field>
OPLS_2005

> <r_lp_Energy>
49.5285

> <b_lp_Chiralities_Consistent>
1

> <s_lp_Variant>
AV-unprocessed.smi:287-30

> <Gold.Version>
5.8.1

> <Gold.Id.Protein>
6NUR|6NUR_protein|mol2

> <Gold.PLP.Fitness>
52.8496

> <Gold.PLP.PLP>
-46.9805

> <Gold.PLP.part.hbond>
-4.9119

> <Gold.PLP.part.metal>
0.0000

> <Gold.PLP.part.buried>
-7.0782

> <Gold.PLP.part.nonpolar>
-37.0201

> <Gold.PLP.part.repulsive>
1.3979

> <Gold.PLP.ligand.clash>
0.1510

> <Gold.PLP.ligand.torsion>
1.5312

> <Gold.PLP.Chemscore.Hbond>
3.0000

> <Gold.PLP.Chemscore.CHOScore>
0.0000

> <Gold.PLP.Chemscore.Metal>
0.0000

> <Gold.Chemscore.Hbonds>
donor molecule, donor type, donor heavy atom, donor atom, acceptor molecule, acceptor atom, score
      L1  H    23    50       P1  7921  1.00
      L1  H    25    51       P1  7921  1.00
      P1  H 10192 10197       L1    23  1.00

> <Gold.PLP.Chemscore.Internal.Correction>
0.0826

> <Gold.Rescore>
     Score         DG    S(hbond)    S(metal)    S(lipo)     H(rot)  DE(clash)    DE(int)     intcor
      8.00     -12.63       2.96        0.00      91.78       5.27       0.27       4.36       ----

> <Gold.Chemscore.Fitness>
7.9960

> <Gold.Chemscore.DG>
-12.6271

> <Gold.Chemscore.ZeroCoef>
-5.4800

> <Gold.Chemscore.Hbond>
2.9619

> <Gold.Chemscore.Metal>
0.0000

> <Gold.Chemscore.Lipo>
91.7786

> <Gold.Chemscore.Internal_Hbond>
0.0000

> <Gold.Chemscore.DEClash>
0.2732

> <Gold.Chemscore.DEInternal>
4.3579

> <Gold.Chemscore.Rot>
5.2672

> <Gold.Chemscore.Internal.Correction>
   9.000000E+99

> <Gold.Chemscore.Hbonds>
donor molecule, donor type, donor heavy atom, donor atom, acceptor molecule, acceptor atom, score
      L1  H    23    50       P1  7921  0.97
      L1  H    25    51       P1  7921  0.99
      P1  H 10192 10197       L1    23  0.98

> <Gold.Chemscore.Hbond.Weighted>
-9.8929

> <Gold.Chemscore.Metal.Weighted>
-0.0000

> <Gold.Chemscore.Lipo.Weighted>
-10.7381

> <Gold.Chemscore.Internal_Hbond.Weighted>
0.0000

> <Gold.Chemscore.DEClash.Weighted>
0.2732

> <Gold.Chemscore.DEInternal.Weighted>
4.3579

> <Gold.Chemscore.Rot.Weighted>
13.4839

> <Gold.Chemscore.Internal.Correction.Weighted>
   9.000000E+99

> <Gold.Protein.RotatedTorsions>
[ 6907 6896 6895 6894 ] final  -72.40 input  -60.11 | X-H torsion
[ 7974 7965 7964 7962 ] final  161.50 input  175.53 | X-H torsion
[ 8008 7997 7996 7995 ] final  -62.43 input   59.86 | X-H torsion
[ 10167 10162 10161 10158 ] final  -75.95 input  -65.29 | X-H torsion
[ 10718 10713 10712 10709 ] final   83.82 input   66.30 | X-H torsion
[ 10763 10752 10751 10750 ] final   71.72 input  -60.55 | X-H torsion
[ 11005 11000 10999 10996 ] final  -51.95 input  -57.11 | X-H torsion

> <Gold.Protein.ActiveResidues>
 VAL166  LYS551  ARG553  GLY616  TRP617  ASP618  TYR619  PRO620  LYS621  CYS622 
 ASP623  PHE694  ASN695  SER759  ASP760  ASP761  ALA762  ILE779  LEU786  VAL792 
 PHE793  MET794  SER795  GLU796  ALA797  LYS798  CYS799  TRP800  GLU811  SER814 

> <Gold.Protein.RotatedAtoms>
  150.7172  134.5169  159.5634 H   0  0  0  0  0  0  0  0  0  0  0  0  # atno 6907 bound_to 6896
  152.2733  134.7906  160.0419 H   0  0  0  0  0  0  0  0  0  0  0  0  # atno 6908 bound_to 6896
  151.8578  133.3416  159.3731 H   0  0  0  0  0  0  0  0  0  0  0  0  # atno 6909 bound_to 6896
  144.7682  139.7907  143.6307 H   0  0  0  0  0  0  0  0  0  0  0  0  # atno 7974 bound_to 7965
  154.4500  140.0996  156.6586 H   0  0  0  0  0  0  0  0  0  0  0  0  # atno 8008 bound_to 7997
  155.5318  140.3481  155.4409 H   0  0  0  0  0  0  0  0  0  0  0  0  # atno 8009 bound_to 7997
  156.0659  140.1337  156.9875 H   0  0  0  0  0  0  0  0  0  0  0  0  # atno 8010 bound_to 7997
  140.4899  143.2383  151.7924 H   0  0  0  0  0  0  0  0  0  0  0  0  # atno 10167 bound_to 10162
  157.6886  131.0107  150.2581 H   0  0  0  0  0  0  0  0  0  0  0  0  # atno 10718 bound_to 10713
  153.0415  135.5126  154.7635 H   0  0  0  0  0  0  0  0  0  0  0  0  # atno 10763 bound_to 10752
  154.6569  135.2933  154.9919 H   0  0  0  0  0  0  0  0  0  0  0  0  # atno 10764 bound_to 10752
  154.0783  135.6667  153.4887 H   0  0  0  0  0  0  0  0  0  0  0  0  # atno 10765 bound_to 10752
  141.0899  133.6635  156.3953 H   0  0  0  0  0  0  0  0  0  0  0  0  # atno 11005 bound_to 11000
  146.1808  139.5000  142.9867 LP  0  0  0  0  0  0  0  0  0  0  0  0  # atno 17320 bound_to 7965
  145.6403  141.0285  143.1815 LP  0  0  0  0  0  0  0  0  0  0  0  0  # atno 17321 bound_to 7965
  139.4849  144.4663  151.9480 LP  0  0  0  0  0  0  0  0  0  0  0  0  # atno 17342 bound_to 10162
  140.3750  144.2808  150.5915 LP  0  0  0  0  0  0  0  0  0  0  0  0  # atno 17343 bound_to 10162
  156.3165  130.3779  149.7613 LP  0  0  0  0  0  0  0  0  0  0  0  0  # atno 17370 bound_to 10713
  156.5197  130.8209  151.3199 LP  0  0  0  0  0  0  0  0  0  0  0  0  # atno 17371 bound_to 10713
  140.5277  134.6243  157.5339 LP  0  0  0  0  0  0  0  0  0  0  0  0  # atno 17394 bound_to 11000
  139.9723  134.7273  156.0018 LP  0  0  0  0  0  0  0  0  0  0  0  0  # atno 17395 bound_to 11000

$$$$
