#       Name:                AV-unprocessed.smi:1251
#       Creating user name   scv26
#       Creation time:       Fri Mar 27 04:37:29 2020


#       File generated by GOLD software.
#

@<TRIPOS>MOLECULE
AV-unprocessed.smi:1251
    45    46     1
SMALL
NO_CHARGES


@<TRIPOS>ATOM
      1 ****        -6.9475   3.1159   0.6866 C.3            1 S1                 0.0000
      2 ****        -5.5645   2.6928   0.1802 C.3            1 S1                 0.0000
      3 ****        -5.1405   1.3143   0.7058 C.3            1 S1                 0.0000
      4 ****        -3.7892   0.9079   0.2207 C.2            1 S1                 0.0000
      5 ****        -3.5974   0.2621  -0.9324 N.2            1 S1                 0.0000
      6 ****        -2.2538   0.0213  -1.1795 N.2            1 S1                 0.0000
      7 ****        -1.4492   0.4931  -0.2167 C.2            1 S1                 0.0000
      8 ****        -0.1129   0.3687  -0.2704 N.pl3          1 S1                -1.0000
      9 ****         0.5032  -0.6159   0.4227 C.2            1 S1                 0.0000
     10 ****        -0.0436  -1.4549   1.1422 O.2            1 S1                 0.0000
     11 ****         1.8351  -0.6271   0.2720 N.am           1 S1                 0.0000
     12 ****         2.7697  -1.5769   0.8748 C.3            1 S1                 0.0000
     13 ****         3.1846  -1.1051   2.2778 C.3            1 S1                 0.0000
     14 ****         3.9850  -1.7938  -0.0499 C.3            1 S1                 0.0000
     15 ****         3.6344  -2.3335  -1.4483 C.3            1 S1                 0.0000
     16 ****         4.0221  -1.2050  -2.3837 C.3            1 S1                 0.0000
     17 ****         5.1318  -0.5142  -1.6060 C.3            1 S1                 0.0000
     18 ****         4.6606  -0.5552  -0.2691 O.3            1 S1                 0.0000
     19 ****        -2.3151   1.3058   1.0869 S.3            1 S1                 0.0000
     20 ****        -7.2218   4.0948   0.2931 H              1 S1                 0.0000
     21 ****        -6.9661   3.1774   1.7750 H              1 S1                 0.0000
     22 ****        -7.7146   2.4058   0.3767 H              1 S1                 0.0000
     23 ****        -5.5686   2.6824  -0.9104 H              1 S1                 0.0000
     24 ****        -4.8285   3.4401   0.4789 H              1 S1                 0.0000
     25 ****        -5.1306   1.3159   1.7960 H              1 S1                 0.0000
     26 ****        -5.8647   0.5574   0.4020 H              1 S1                 0.0000
     27 ****         2.2368   0.0816  -0.3243 H              1 S1                 0.0000
     28 ****         2.2727  -2.5426   0.9820 H              1 S1                 0.0000
     29 ****         3.8680  -1.8151   2.7435 H              1 S1                 0.0000
     30 ****         2.3180  -1.0064   2.9323 H              1 S1                 0.0000
     31 ****         3.6840  -0.1365   2.2406 H              1 S1                 0.0000
     32 ****         4.6844  -2.4833   0.4251 H              1 S1                 0.0000
     33 ****         4.2366  -3.2170  -1.6630 H              1 S1                 0.0000
     34 ****         2.5867  -2.6168  -1.5569 H              1 S1                 0.0000
     35 ****         4.3395  -1.5522  -3.3671 H              1 S1                 0.0000
     36 ****         3.1804  -0.5237  -2.5153 H              1 S1                 0.0000
     37 ****         6.0667  -1.0716  -1.6817 H              1 S1                 0.0000
     38 ****         5.3092   0.5086  -1.9389 H              1 S1                 0.0000
     39 ****        -4.3364  -0.0155  -1.5463 LP             1 S1                 0.0000
     40 ****        -1.9197  -0.4554  -1.9926 LP             1 S1                 0.0000
     41 ****         0.4265   1.0041  -0.8229 LP             1 S1                 0.0000
     42 ****        -1.0372  -1.4458   1.2546 LP             1 S1                 0.0000
     43 ****         0.5066  -2.1444   1.6132 LP             1 S1                 0.0000
     44 ****         5.4335  -0.4792   0.3609 LP             1 S1                 0.0000
     45 ****         4.0279   0.2035  -0.1136 LP             1 S1                 0.0000
@<TRIPOS>BOND
    1    1    2 1     
    2    1   20 1     
    3    1   21 1     
    4    1   22 1     
    5    2    3 1     
    6    2   23 1     
    7    2   24 1     
    8    3    4 1     
    9    3   25 1     
   10    3   26 1     
   11    4   19 1     
   12    4    5 2     
   13    5    6 1     
   14    6    7 2     
   15    7    8 1     
   16    7   19 1     
   17    8    9 1     
   18    9   10 2     
   19    9   11 am    
   20   11   12 1     
   21   11   27 1     
   22   12   13 1     
   23   12   14 1     
   24   12   28 1     
   25   13   29 1     
   26   13   30 1     
   27   13   31 1     
   28   14   18 1     
   29   14   15 1     
   30   14   32 1     
   31   15   16 1     
   32   15   33 1     
   33   15   34 1     
   34   16   17 1     
   35   16   35 1     
   36   16   36 1     
   37   17   18 1     
   38   17   37 1     
   39   17   38 1     
   40    5   39 1     
   41    6   40 1     
   42    8   41 1     
   43   10   42 1     
   44   10   43 1     
   45   18   44 1     
   46   18   45 1     
@<TRIPOS>SUBSTRUCTURE
      1 S1             1
@<TRIPOS>SET
LONE_PAIRS      STATIC     ATOMS    <user>   **** ""
7 39 40 41 42 43 44 45
DONOR_HYDROGENS      STATIC     ATOMS    <user>   **** ""
1 27
ATOM$BLUE        STATIC     ATOMS    COLORGROUP SYSTEM
7 39 40 41 42 43 44 45
ATOM$RED        STATIC     ATOMS    COLORGROUP SYSTEM
1 27
