AV-unprocessed.smi:824|AV-procd|sdf|3848|dock4
  -GOLD-   22720 1293D 1   1.00000     0.00000
 Structure written by MMmdl.
 52 53  0  0  0  0  0  0  0  0  1 V2000
  153.2250  138.3874  154.7540 C   0  0  0  0  0  0  0  0  0  0  0  0
  152.1164  139.0398  155.5612 C   0  0  0  0  0  0  0  0  0  0  0  0
  152.5126  140.0941  156.3934 N   0  0  0  0  0  0  0  0  0  0  0  0
  151.6405  140.7122  157.1265 C   0  0  0  0  0  0  0  0  0  0  0  0
  151.9055  141.7779  157.9901 N   0  0  0  0  0  0  0  0  0  0  0  0
  151.1663  143.0403  157.9052 C   0  0  0  0  0  0  0  0  0  0  0  0
  151.9601  144.1977  158.5342 C   0  0  0  0  0  0  0  0  0  0  0  0
  152.3014  143.8726  159.8746 O   0  0  0  0  0  0  0  0  0  0  0  0
  153.1285  142.7188  159.9320 C   0  0  0  0  0  0  0  0  0  0  0  0
  152.3747  141.5114  159.3499 C   0  0  0  0  0  0  0  0  0  0  0  0
  150.2934  140.3368  157.0806 N   0  0  0  0  0  0  0  0  0  0  0  0
  149.8102  139.3388  156.3084 C   0  0  0  0  0  0  0  0  0  0  0  0
  148.6100  139.0694  156.3171 O   0  0  0  0  0  0  0  0  0  0  0  0
  150.8153  138.6426  155.4891 C   0  0  0  0  0  0  0  0  0  0  0  0
  150.3406  137.4896  154.6091 C   0  0  0  0  0  0  0  0  0  0  0  0
  149.6435  136.3861  155.4292 C   0  0  0  0  0  0  0  0  0  0  0  0
  150.5979  135.2930  155.9441 C   0  0  0  0  0  0  0  0  0  0  0  0
  151.6343  135.6225  156.5241 O   0  0  0  0  0  0  0  0  0  0  0  0
  150.2648  133.9946  155.7446 N   0  0  0  0  0  0  0  0  0  0  0  0
  151.0895  132.8829  156.2294 C   0  0  0  0  0  0  0  0  0  0  0  0
  149.0163  133.6167  155.0635 C   0  0  0  0  0  0  0  0  0  0  0  0
  149.2518  132.7677  153.7924 C   0  0  0  0  0  0  0  0  0  0  0  0
  148.0858  132.9340  152.8071 C   0  0  0  0  0  0  0  0  0  0  0  0
  149.4836  131.2800  154.1078 C   0  0  0  0  0  0  0  0  0  0  0  0
  149.6337  140.8414  157.6544 H   0  0  0  0  0  0  0  0  0  0  0  0
  152.9624  138.3521  153.6965 H   0  0  0  0  0  0  0  0  0  0  0  0
  153.4007  137.3697  155.1033 H   0  0  0  0  0  0  0  0  0  0  0  0
  154.1607  138.9405  154.8464 H   0  0  0  0  0  0  0  0  0  0  0  0
  150.9283  143.3023  156.8743 H   0  0  0  0  0  0  0  0  0  0  0  0
  150.2144  142.9206  158.4242 H   0  0  0  0  0  0  0  0  0  0  0  0
  152.8610  144.4106  157.9563 H   0  0  0  0  0  0  0  0  0  0  0  0
  151.3601  145.1080  158.5331 H   0  0  0  0  0  0  0  0  0  0  0  0
  154.0589  142.8946  159.3893 H   0  0  0  0  0  0  0  0  0  0  0  0
  153.3980  142.5272  160.9704 H   0  0  0  0  0  0  0  0  0  0  0  0
  151.5164  141.2684  159.9775 H   0  0  0  0  0  0  0  0  0  0  0  0
  153.0349  140.6431  159.3635 H   0  0  0  0  0  0  0  0  0  0  0  0
  149.6634  137.8629  153.8408 H   0  0  0  0  0  0  0  0  0  0  0  0
  151.1919  137.0784  154.0639 H   0  0  0  0  0  0  0  0  0  0  0  0
  149.1419  136.8378  156.2858 H   0  0  0  0  0  0  0  0  0  0  0  0
  148.8718  135.9229  154.8136 H   0  0  0  0  0  0  0  0  0  0  0  0
  151.0807  132.8460  157.3193 H   0  0  0  0  0  0  0  0  0  0  0  0
  152.1224  132.9817  155.8941 H   0  0  0  0  0  0  0  0  0  0  0  0
  150.7387  131.9164  155.8666 H   0  0  0  0  0  0  0  0  0  0  0  0
  148.3565  133.0787  155.7454 H   0  0  0  0  0  0  0  0  0  0  0  0
  148.4633  134.5211  154.8026 H   0  0  0  0  0  0  0  0  0  0  0  0
  150.1471  133.1393  153.2927 H   0  0  0  0  0  0  0  0  0  0  0  0
  147.1504  132.5721  153.2355 H   0  0  0  0  0  0  0  0  0  0  0  0
  148.2669  132.3791  151.8863 H   0  0  0  0  0  0  0  0  0  0  0  0
  147.9450  133.9809  152.5363 H   0  0  0  0  0  0  0  0  0  0  0  0
  148.6337  130.8509  154.6393 H   0  0  0  0  0  0  0  0  0  0  0  0
  150.3715  131.1344  154.7235 H   0  0  0  0  0  0  0  0  0  0  0  0
  149.6289  130.7036  153.1940 H   0  0  0  0  0  0  0  0  0  0  0  0
  1  2  1  0  0  0  0
  1 26  1  0  0  0  0
  1 27  1  0  0  0  0
  1 28  1  0  0  0  0
  2 14  2  0  0  0  0
  2  3  1  0  0  0  0
  3  4  2  0  0  0  0
  4  5  1  0  0  0  0
  4 11  1  0  0  0  0
  5 10  1  0  0  0  0
  5  6  1  0  0  0  0
  6  7  1  0  0  0  0
  6 29  1  0  0  0  0
  6 30  1  0  0  0  0
  7  8  1  0  0  0  0
  7 31  1  0  0  0  0
  7 32  1  0  0  0  0
  8  9  1  0  0  0  0
  9 10  1  0  0  0  0
  9 33  1  0  0  0  0
  9 34  1  0  0  0  0
 10 35  1  0  0  0  0
 10 36  1  0  0  0  0
 11 25  1  0  0  0  0
 11 12  1  0  0  0  0
 12 13  2  0  0  0  0
 12 14  1  0  0  0  0
 14 15  1  0  0  0  0
 15 16  1  0  0  0  0
 15 37  1  0  0  0  0
 15 38  1  0  0  0  0
 16 17  1  0  0  0  0
 16 39  1  0  0  0  0
 16 40  1  0  0  0  0
 17 18  2  0  0  0  0
 17 19  1  0  0  0  0
 19 20  1  0  0  0  0
 19 21  1  0  0  0  0
 20 41  1  0  0  0  0
 20 42  1  0  0  0  0
 20 43  1  0  0  0  0
 21 22  1  0  0  0  0
 21 44  1  0  0  0  0
 21 45  1  0  0  0  0
 22 23  1  0  0  0  0
 22 24  1  0  0  0  0
 22 46  1  0  0  0  0
 23 47  1  0  0  0  0
 23 48  1  0  0  0  0
 23 49  1  0  0  0  0
 24 50  1  0  0  0  0
 24 51  1  0  0  0  0
 24 52  1  0  0  0  0
M  END
> <s_m_source_file>
AV-unprocessed.smi

> <i_m_source_file_index>
824

> <i_lp_mmshare_version>
43012

> <i_f3d_flags>
0

> <s_epik_input>
W0NIMl0xW0NIMl1PW0NIMl1bQ0gyXU4xYyhuYzJbQ0gzXSlbbkhdYyg9TyljMltDSDJdW0NIMl1DKD1PKU4oW0NIM10pW0NIMl1bQ0hdKFtDSDNdKVtDSDNd

> <s_epik_cmdline>
J2VwaWtfcHl0aG9uJywgJy1waCcsICc3LjAnLCAnLXRuJywgJzgnLCAnLW1hJywgJzIwMCcsICctbWV0YWxfYmluZGluZycsICctaW1hZScsICc8aW5maWxlLm1hZT4nLCAnLW9tYWUnLCAnPG91dGZpbGUubWFlPic=

> <r_lp_tautomer_probability>
0.878553

> <r_epik_Ionization_Penalty>
0.00115806

> <r_epik_Ionization_Penalty_Charging>
0.00113132

> <r_epik_Ionization_Penalty_Neutral>
2.67354e-05

> <r_epik_State_Penalty>
0.0423856

> <r_epik_Charging_Adjusted_Penalty>
0.0435169

> <i_epik_Tot_Q>
0

> <i_epik_Tot_abs_Q>
0

> <r_epik_Metal_State_Penalty>
1.05917

> <b_epik_Metal_Only>
0

> <s_lp_Force_Field>
OPLS_2005

> <r_lp_Energy>
33.2944

> <b_lp_Chiralities_Consistent>
1

> <s_lp_Variant>
AV-unprocessed.smi:824-1

> <Gold.Version>
5.8.1

> <Gold.Id.Protein>
6NUR|6NUR_protein|mol2

> <Gold.PLP.Fitness>
46.5289

> <Gold.PLP.PLP>
-44.3511

> <Gold.PLP.part.hbond>
-2.0000

> <Gold.PLP.part.metal>
0.0000

> <Gold.PLP.part.buried>
-4.9394

> <Gold.PLP.part.nonpolar>
-37.7953

> <Gold.PLP.part.repulsive>
0.0358

> <Gold.PLP.ligand.clash>
0.0000

> <Gold.PLP.ligand.torsion>
1.7756

> <Gold.PLP.Chemscore.Hbond>
1.8000

> <Gold.PLP.Chemscore.CHOScore>
0.0000

> <Gold.PLP.Chemscore.Metal>
0.0000

> <Gold.Chemscore.Hbonds>
donor molecule, donor type, donor heavy atom, donor atom, acceptor molecule, acceptor atom, score
      P1  H  7997  8008       L1     3  0.82
      P1  H 10752 10763       L1    18  0.71

> <Gold.PLP.Chemscore.Internal.Correction>
0.3290

> <Gold.Rescore>
     Score         DG    S(hbond)    S(metal)    S(lipo)     H(rot)  DE(clash)    DE(int)     intcor
     15.94     -18.68       1.78        0.00      99.54       1.71       0.04       2.70       ----

> <Gold.Chemscore.Fitness>
15.9426

> <Gold.Chemscore.DG>
-18.6824

> <Gold.Chemscore.ZeroCoef>
-5.4800

> <Gold.Chemscore.Hbond>
1.7760

> <Gold.Chemscore.Metal>
0.0000

> <Gold.Chemscore.Lipo>
99.5422

> <Gold.Chemscore.Internal_Hbond>
0.0000

> <Gold.Chemscore.DEClash>
0.0358

> <Gold.Chemscore.DEInternal>
2.7040

> <Gold.Chemscore.Rot>
1.7093

> <Gold.Chemscore.Internal.Correction>
   9.000000E+99

> <Gold.Chemscore.Hbonds>
donor molecule, donor type, donor heavy atom, donor atom, acceptor molecule, acceptor atom, score
      P1  H  7997  8008       L1     3  0.66
      P1  H 10752 10763       L1    18  0.18

> <Gold.Chemscore.Hbond.Weighted>
-5.9319

> <Gold.Chemscore.Metal.Weighted>
-0.0000

> <Gold.Chemscore.Lipo.Weighted>
-11.6464

> <Gold.Chemscore.Internal_Hbond.Weighted>
0.0000

> <Gold.Chemscore.DEClash.Weighted>
0.0358

> <Gold.Chemscore.DEInternal.Weighted>
2.7040

> <Gold.Chemscore.Rot.Weighted>
4.3759

> <Gold.Chemscore.Internal.Correction.Weighted>
   9.000000E+99

> <Gold.Protein.RotatedTorsions>
[ 6907 6896 6895 6894 ] final -168.21 input  -60.11 | X-H torsion
[ 7974 7965 7964 7962 ] final -160.01 input  175.53 | X-H torsion
[ 8008 7997 7996 7995 ] final  -67.53 input   59.86 | X-H torsion
[ 10167 10162 10161 10158 ] final -102.90 input  -65.29 | X-H torsion
[ 10718 10713 10712 10709 ] final  166.83 input   66.30 | X-H torsion
[ 10763 10752 10751 10750 ] final   78.34 input  -60.55 | X-H torsion
[ 11005 11000 10999 10996 ] final   43.67 input  -57.11 | X-H torsion

> <Gold.Protein.ActiveResidues>
 VAL166  LYS551  ARG553  GLY616  TRP617  ASP618  TYR619  PRO620  LYS621  CYS622 
 ASP623  PHE694  ASN695  SER759  ASP760  ASP761  ALA762  ILE779  LEU786  VAL792 
 PHE793  MET794  SER795  GLU796  ALA797  LYS798  CYS799  TRP800  GLU811  SER814 

> <Gold.Protein.RotatedAtoms>
  151.4720  133.3567  159.2824 H   0  0  0  0  0  0  0  0  0  0  0  0  # atno 6907 bound_to 6896
  150.8955  134.8364  159.7334 H   0  0  0  0  0  0  0  0  0  0  0  0  # atno 6908 bound_to 6896
  152.4848  134.4634  159.9664 H   0  0  0  0  0  0  0  0  0  0  0  0  # atno 6909 bound_to 6896
  144.7443  140.3603  143.6097 H   0  0  0  0  0  0  0  0  0  0  0  0  # atno 7974 bound_to 7965
  154.4806  140.0891  156.7368 H   0  0  0  0  0  0  0  0  0  0  0  0  # atno 8008 bound_to 7997
  155.4481  140.3456  155.4279 H   0  0  0  0  0  0  0  0  0  0  0  0  # atno 8009 bound_to 7997
  156.1185  140.1467  156.9227 H   0  0  0  0  0  0  0  0  0  0  0  0  # atno 8010 bound_to 7997
  140.2258  143.3643  152.0930 H   0  0  0  0  0  0  0  0  0  0  0  0  # atno 10167 bound_to 10162
  157.0602  131.0338  151.2649 H   0  0  0  0  0  0  0  0  0  0  0  0  # atno 10718 bound_to 10713
  153.0867  135.4880  154.8610 H   0  0  0  0  0  0  0  0  0  0  0  0  # atno 10763 bound_to 10752
  154.7219  135.3041  154.9036 H   0  0  0  0  0  0  0  0  0  0  0  0  # atno 10764 bound_to 10752
  153.9697  135.6802  153.4800 H   0  0  0  0  0  0  0  0  0  0  0  0  # atno 10765 bound_to 10752
  140.1623  134.4325  155.8309 H   0  0  0  0  0  0  0  0  0  0  0  0  # atno 11005 bound_to 11000
  145.7184  139.1703  143.2499 LP  0  0  0  0  0  0  0  0  0  0  0  0  # atno 17320 bound_to 7965
  146.1295  140.7204  142.9419 LP  0  0  0  0  0  0  0  0  0  0  0  0  # atno 17321 bound_to 7965
  139.5128  144.6922  151.5729 LP  0  0  0  0  0  0  0  0  0  0  0  0  # atno 17342 bound_to 10162
  140.6222  143.9237  150.6535 LP  0  0  0  0  0  0  0  0  0  0  0  0  # atno 17343 bound_to 10162
  157.4961  130.7851  149.7556 LP  0  0  0  0  0  0  0  0  0  0  0  0  # atno 17370 bound_to 10713
  155.9981  130.3896  150.2716 LP  0  0  0  0  0  0  0  0  0  0  0  0  # atno 17371 bound_to 10713
  141.2210  133.6919  156.7616 LP  0  0  0  0  0  0  0  0  0  0  0  0  # atno 17394 bound_to 11000
  140.2475  134.8566  157.3634 LP  0  0  0  0  0  0  0  0  0  0  0  0  # atno 17395 bound_to 11000

$$$$
