AV-unprocessed.smi:2276|AV-procd|sdf|9173|dock2
  -GOLD-   2272012383D 1   1.00000     0.00000
 Structure written by MMmdl.
 53 54  0  0  0  0  0  0  0  0  2 V2000
  152.1626  145.9431  160.3261 C   0  0  0  0  0  0  0  0  0  0  0  0
  152.1154  144.5640  159.7024 C   0  0  0  0  0  0  0  0  0  0  0  0
  152.9285  143.5290  160.2015 C   0  0  0  0  0  0  0  0  0  0  0  0
  152.8463  142.2637  159.5888 C   0  0  0  0  0  0  0  0  0  0  0  0
  153.6970  141.1074  160.0701 C   0  0  0  0  0  0  0  0  0  0  0  0
  152.0307  142.0034  158.5455 N   0  0  0  0  0  0  0  0  0  0  0  0
  151.2409  142.9919  158.0565 C   0  0  0  0  0  0  0  0  0  0  0  0
  150.3832  142.8267  156.9368 N   0  0  0  0  0  0  0  0  0  0  0  0
  150.2164  141.7178  156.1963 C   0  0  0  0  0  0  0  0  0  0  0  0
  150.8199  140.6581  156.3653 O   0  0  0  0  0  0  0  0  0  0  0  0
  149.3250  141.9203  155.2144 N   0  0  0  0  0  0  0  0  0  0  0  0
  149.0614  141.0199  154.0912 C   0  0  0  0  0  0  0  0  0  0  0  0
  147.6554  140.3653  154.1201 C   0  0  1  0  0  0  0  0  0  0  0  0
  147.5082  139.4719  155.3617 C   0  0  0  0  0  0  0  0  0  0  0  0
  146.5101  141.4085  154.0377 C   0  0  0  0  0  0  0  0  0  0  0  0
  146.6070  142.4987  155.0171 N   0  0  0  0  0  0  0  0  0  0  0  0
  145.6462  143.5682  154.7273 C   0  0  0  0  0  0  0  0  0  0  0  0
  144.1847  143.1402  155.0052 C   0  0  0  0  0  0  0  0  0  0  0  0
  144.0239  142.6795  156.4052 N   0  3  0  0  0  0  0  0  0  0  0  0
  142.6384  142.2665  156.7154 C   0  0  0  0  0  0  0  0  0  0  0  0
  145.0116  141.6264  156.7315 C   0  0  0  0  0  0  0  0  0  0  0  0
  146.4413  142.1149  156.4256 C   0  0  0  0  0  0  0  0  0  0  0  0
  151.2616  144.2898  158.6142 C   0  0  0  0  0  0  0  0  0  0  0  0
  151.7081  145.9236  161.3169 H   0  0  0  0  0  0  0  0  0  0  0  0
  151.6267  146.6721  159.7176 H   0  0  0  0  0  0  0  0  0  0  0  0
  153.1947  146.2793  160.4282 H   0  0  0  0  0  0  0  0  0  0  0  0
  153.5956  143.7020  161.0334 H   0  0  0  0  0  0  0  0  0  0  0  0
  154.1434  141.3243  161.0409 H   0  0  0  0  0  0  0  0  0  0  0  0
  154.5001  140.9094  159.3600 H   0  0  0  0  0  0  0  0  0  0  0  0
  153.0947  140.2037  160.1689 H   0  0  0  0  0  0  0  0  0  0  0  0
  149.9880  143.6787  156.5672 H   0  0  0  0  0  0  0  0  0  0  0  0
  148.8598  142.8158  155.1838 H   0  0  0  0  0  0  0  0  0  0  0  0
  149.2044  141.5663  153.1578 H   0  0  0  0  0  0  0  0  0  0  0  0
  149.8268  140.2436  154.1139 H   0  0  0  0  0  0  0  0  0  0  0  0
  147.6148  139.7082  153.2551 H   0  0  0  0  0  0  0  0  0  0  0  0
  147.5537  140.0580  156.2801 H   0  0  0  0  0  0  0  0  0  0  0  0
  148.3015  138.7252  155.4042 H   0  0  0  0  0  0  0  0  0  0  0  0
  146.5579  138.9378  155.3545 H   0  0  0  0  0  0  0  0  0  0  0  0
  146.5036  141.8372  153.0346 H   0  0  0  0  0  0  0  0  0  0  0  0
  145.5471  140.9178  154.1511 H   0  0  0  0  0  0  0  0  0  0  0  0
  145.8943  144.4350  155.3416 H   0  0  0  0  0  0  0  0  0  0  0  0
  145.7551  143.8893  153.6907 H   0  0  0  0  0  0  0  0  0  0  0  0
  143.5236  143.9901  154.8338 H   0  0  0  0  0  0  0  0  0  0  0  0
  143.8625  142.3599  154.3149 H   0  0  0  0  0  0  0  0  0  0  0  0
  142.3448  141.4002  156.1204 H   0  0  0  0  0  0  0  0  0  0  0  0
  141.9397  143.0777  156.5093 H   0  0  0  0  0  0  0  0  0  0  0  0
  142.5432  142.0033  157.7693 H   0  0  0  0  0  0  0  0  0  0  0  0
  144.9324  141.3759  157.7900 H   0  0  0  0  0  0  0  0  0  0  0  0
  144.7818  140.7159  156.1809 H   0  0  0  0  0  0  0  0  0  0  0  0
  147.1703  141.3625  156.7199 H   0  0  0  0  0  0  0  0  0  0  0  0
  146.6630  142.9849  157.0456 H   0  0  0  0  0  0  0  0  0  0  0  0
  150.6314  145.0690  158.2098 H   0  0  0  0  0  0  0  0  0  0  0  0
  144.2377  143.4697  156.9966 H   0  0  0  0  0  0  0  0  0  0  0  0
  1  2  1  0  0  0  0
  1 24  1  0  0  0  0
  1 25  1  0  0  0  0
  1 26  1  0  0  0  0
  2 23  1  0  0  0  0
  2  3  2  0  0  0  0
  3  4  1  0  0  0  0
  3 27  1  0  0  0  0
  4  5  1  0  0  0  0
  4  6  2  0  0  0  0
  5 28  1  0  0  0  0
  5 29  1  0  0  0  0
  5 30  1  0  0  0  0
  6  7  1  0  0  0  0
  7  8  1  0  0  0  0
  7 23  2  0  0  0  0
  8  9  1  0  0  0  0
  8 31  1  0  0  0  0
  9 10  2  0  0  0  0
  9 11  1  0  0  0  0
 11 12  1  0  0  0  0
 11 32  1  0  0  0  0
 12 13  1  0  0  0  0
 12 33  1  0  0  0  0
 12 34  1  0  0  0  0
 13 14  1  0  0  0  0
 13 15  1  0  0  0  0
 13 35  1  0  0  0  0
 14 36  1  0  0  0  0
 14 37  1  0  0  0  0
 14 38  1  0  0  0  0
 15 16  1  0  0  0  0
 15 39  1  0  0  0  0
 15 40  1  0  0  0  0
 16 22  1  0  0  0  0
 16 17  1  0  0  0  0
 17 18  1  0  0  0  0
 17 41  1  0  0  0  0
 17 42  1  0  0  0  0
 18 19  1  0  0  0  0
 18 43  1  0  0  0  0
 18 44  1  0  0  0  0
 19 20  1  0  0  0  0
 19 21  1  0  0  0  0
 19 53  1  0  0  0  0
 20 45  1  0  0  0  0
 20 46  1  0  0  0  0
 20 47  1  0  0  0  0
 21 22  1  0  0  0  0
 21 48  1  0  0  0  0
 21 49  1  0  0  0  0
 22 50  1  0  0  0  0
 22 51  1  0  0  0  0
 23 52  1  0  0  0  0
M  CHG  1  19   1
M  END
> <s_m_source_file>
AV-unprocessed.smi

> <i_m_source_file_index>
2276

> <i_lp_mmshare_version>
43012

> <i_f3d_flags>
0

> <s_epik_input>
W0NIM11jMVtjSF1jKFtDSDNdKW5jKFtjSF0xKVtOSF1DKD1PKVtOSF1bQ0gyXVtDQEhdKFtDSDNdKVtDSDJdTjJbQ0gyXVtDSDJdTihbQ0gzXSlbQ0gyXVtDSDJdMg==

> <s_epik_cmdline>
J2VwaWtfcHl0aG9uJywgJy1waCcsICc3LjAnLCAnLXRuJywgJzgnLCAnLW1hJywgJzIwMCcsICctbWV0YWxfYmluZGluZycsICctaW1hZScsICc8aW5maWxlLm1hZT4nLCAnLW9tYWUnLCAnPG91dGZpbGUubWFlPic=

> <r_epik_Ionization_Penalty>
0.0247364

> <r_epik_Ionization_Penalty_Charging>
0.0230248

> <r_epik_Ionization_Penalty_Neutral>
0.00171164

> <r_epik_State_Penalty>
0.239056

> <r_epik_Charging_Adjusted_Penalty>
0.262081

> <i_epik_Tot_Q>
1

> <i_epik_Tot_abs_Q>
1

> <r_epik_Metal_State_Penalty>
0.239048

> <b_epik_Metal_Only>
0

> <s_lp_Force_Field>
OPLS_2005

> <r_lp_Energy>
20.5392

> <b_lp_Chiralities_Consistent>
1

> <s_lp_Variant>
AV-unprocessed.smi:2276-2

> <Gold.Version>
5.8.1

> <Gold.Id.Protein>
6NUR|6NUR_protein|mol2

> <Gold.PLP.Fitness>
46.5783

> <Gold.PLP.PLP>
-40.8363

> <Gold.PLP.part.hbond>
-2.0000

> <Gold.PLP.part.metal>
0.0000

> <Gold.PLP.part.buried>
-6.5327

> <Gold.PLP.part.nonpolar>
-33.7012

> <Gold.PLP.part.repulsive>
0.3941

> <Gold.PLP.ligand.clash>
0.0000

> <Gold.PLP.ligand.torsion>
0.1265

> <Gold.PLP.Chemscore.Hbond>
1.9760

> <Gold.PLP.Chemscore.CHOScore>
0.0000

> <Gold.PLP.Chemscore.Metal>
0.0000

> <Gold.Chemscore.Hbonds>
donor molecule, donor type, donor heavy atom, donor atom, acceptor molecule, acceptor atom, score
      L1  H     8    31       P1  8028  1.00
      L1  H    11    32       P1  8028  0.98

> <Gold.PLP.Chemscore.Internal.Correction>
0.0669

> <Gold.Rescore>
     Score         DG    S(hbond)    S(metal)    S(lipo)     H(rot)  DE(clash)    DE(int)     intcor
     16.03     -19.84       1.90        0.00     104.17       1.63       0.27       3.55       ----

> <Gold.Chemscore.Fitness>
16.0276

> <Gold.Chemscore.DG>
-19.8416

> <Gold.Chemscore.ZeroCoef>
-5.4800

> <Gold.Chemscore.Hbond>
1.8987

> <Gold.Chemscore.Metal>
0.0000

> <Gold.Chemscore.Lipo>
104.1732

> <Gold.Chemscore.Internal_Hbond>
0.0000

> <Gold.Chemscore.DEClash>
0.2676

> <Gold.Chemscore.DEInternal>
3.5465

> <Gold.Chemscore.Rot>
1.6282

> <Gold.Chemscore.Internal.Correction>
   9.000000E+99

> <Gold.Chemscore.Hbonds>
donor molecule, donor type, donor heavy atom, donor atom, acceptor molecule, acceptor atom, score
      L1  H     8    31       P1  8028  0.99
      L1  H    11    32       P1  8028  0.92

> <Gold.Chemscore.Hbond.Weighted>
-6.3415

> <Gold.Chemscore.Metal.Weighted>
-0.0000

> <Gold.Chemscore.Lipo.Weighted>
-12.1883

> <Gold.Chemscore.Internal_Hbond.Weighted>
0.0000

> <Gold.Chemscore.DEClash.Weighted>
0.2676

> <Gold.Chemscore.DEInternal.Weighted>
3.5465

> <Gold.Chemscore.Rot.Weighted>
4.1682

> <Gold.Chemscore.Internal.Correction.Weighted>
   9.000000E+99

> <Gold.Protein.RotatedTorsions>
[ 6907 6896 6895 6894 ] final  145.21 input  -60.11 | X-H torsion
[ 7974 7965 7964 7962 ] final -132.33 input  175.53 | X-H torsion
[ 8008 7997 7996 7995 ] final   90.06 input   59.86 | X-H torsion
[ 10167 10162 10161 10158 ] final   84.01 input  -65.29 | X-H torsion
[ 10718 10713 10712 10709 ] final   30.78 input   66.30 | X-H torsion
[ 10763 10752 10751 10750 ] final  -83.77 input  -60.55 | X-H torsion
[ 11005 11000 10999 10996 ] final -160.89 input  -57.11 | X-H torsion

> <Gold.Protein.ActiveResidues>
 VAL166  LYS551  ARG553  GLY616  TRP617  ASP618  TYR619  PRO620  LYS621  CYS622 
 ASP623  PHE694  ASN695  SER759  ASP760  ASP761  ALA762  ILE779  LEU786  VAL792 
 PHE793  MET794  SER795  GLU796  ALA797  LYS798  CYS799  TRP800  GLU811  SER814 

> <Gold.Protein.RotatedAtoms>
  152.1838  133.4725  159.4971 H   0  0  0  0  0  0  0  0  0  0  0  0  # atno 6907 bound_to 6896
  150.6939  134.1799  159.4254 H   0  0  0  0  0  0  0  0  0  0  0  0  # atno 6908 bound_to 6896
  151.9711  135.0076  160.0603 H   0  0  0  0  0  0  0  0  0  0  0  0  # atno 6909 bound_to 6896
  144.9295  140.7112  143.4914 H   0  0  0  0  0  0  0  0  0  0  0  0  # atno 7974 bound_to 7965
  156.0074  140.3353  155.6906 H   0  0  0  0  0  0  0  0  0  0  0  0  # atno 8008 bound_to 7997
  155.6205  140.0674  157.2697 H   0  0  0  0  0  0  0  0  0  0  0  0  # atno 8009 bound_to 7997
  154.4270  140.1777  156.1354 H   0  0  0  0  0  0  0  0  0  0  0  0  # atno 8010 bound_to 7997
  139.9124  144.6263  150.8523 H   0  0  0  0  0  0  0  0  0  0  0  0  # atno 10167 bound_to 10162
  157.2640  130.7175  149.6469 H   0  0  0  0  0  0  0  0  0  0  0  0  # atno 10718 bound_to 10713
  154.5916  135.5544  153.7284 H   0  0  0  0  0  0  0  0  0  0  0  0  # atno 10763 bound_to 10752
  153.0119  135.6344  154.1841 H   0  0  0  0  0  0  0  0  0  0  0  0  # atno 10764 bound_to 10752
  154.1782  135.2888  155.3040 H   0  0  0  0  0  0  0  0  0  0  0  0  # atno 10765 bound_to 10752
  140.6265  134.4696  157.5227 H   0  0  0  0  0  0  0  0  0  0  0  0  # atno 11005 bound_to 11000
  145.3164  139.1802  143.4611 LP  0  0  0  0  0  0  0  0  0  0  0  0  # atno 17320 bound_to 7965
  146.3241  140.3176  142.8631 LP  0  0  0  0  0  0  0  0  0  0  0  0  # atno 17321 bound_to 7965
  140.7682  143.3356  151.2317 LP  0  0  0  0  0  0  0  0  0  0  0  0  # atno 17342 bound_to 10162
  139.6931  143.9659  152.2869 LP  0  0  0  0  0  0  0  0  0  0  0  0  # atno 17343 bound_to 10162
  155.9663  130.4388  150.5233 LP  0  0  0  0  0  0  0  0  0  0  0  0  # atno 17370 bound_to 10713
  157.3144  131.0670  151.1978 LP  0  0  0  0  0  0  0  0  0  0  0  0  # atno 17371 bound_to 10713
  139.9133  134.8299  156.1453 LP  0  0  0  0  0  0  0  0  0  0  0  0  # atno 17394 bound_to 11000
  141.0706  133.6799  156.2132 LP  0  0  0  0  0  0  0  0  0  0  0  0  # atno 17395 bound_to 11000

$$$$
