AV-unprocessed.smi:2899|AV-procd|sdf|11145|dock7
  -GOLD-   2272016 23D 1   1.00000     0.00000
 Structure written by MMmdl.
 30 32  0  0  0  0  0  0  0  0  1 V2000
  153.0012  142.7353  161.6833 C   0  0  0  0  0  0  0  0  0  0  0  0
  152.2106  143.4504  160.6086 C   0  0  0  0  0  0  0  0  0  0  0  0
  151.8640  144.8123  160.7278 C   0  0  0  0  0  0  0  0  0  0  0  0
  151.1266  145.3610  159.6592 C   0  0  0  0  0  0  0  0  0  0  0  0
  150.7720  144.6218  158.5850 N   0  0  0  0  0  0  0  0  0  0  0  0
  151.1515  143.3414  158.5765 C   0  0  0  0  0  0  0  0  0  0  0  0
  150.7681  142.6165  157.4632 N   0  0  0  0  0  0  0  0  0  0  0  0
  150.9394  141.1759  157.3126 C   0  0  2  0  0  0  0  0  0  0  0  0
  151.9811  140.8000  156.2565 C   0  0  0  0  0  0  0  0  0  0  0  0
  151.1875  139.8365  155.3618 C   0  0  2  0  0  0  0  0  0  0  0  0
  150.1889  140.5883  154.4723 C   0  0  0  0  0  0  0  0  0  0  0  0
  149.1248  141.0058  155.4856 C   0  0  0  0  0  0  0  0  0  0  0  0
  149.6907  140.4338  156.7967 C   0  0  1  0  0  0  0  0  0  0  0  0
  150.3040  139.2536  156.3056 O   0  0  0  0  0  0  0  0  0  0  0  0
  151.8529  142.7180  159.5311 N   0  0  0  0  0  0  0  0  0  0  0  0
  153.2904  143.4200  162.4811 H   0  0  0  0  0  0  0  0  0  0  0  0
  153.9082  142.3013  161.2617 H   0  0  0  0  0  0  0  0  0  0  0  0
  152.4064  141.9330  162.1206 H   0  0  0  0  0  0  0  0  0  0  0  0
  152.1454  145.4046  161.5859 H   0  0  0  0  0  0  0  0  0  0  0  0
  150.8200  146.3964  159.6657 H   0  0  0  0  0  0  0  0  0  0  0  0
  150.2368  143.1066  156.7586 H   0  0  0  0  0  0  0  0  0  0  0  0
  151.2431  140.7519  158.2708 H   0  0  0  0  0  0  0  0  0  0  0  0
  152.3676  141.6521  155.6953 H   0  0  0  0  0  0  0  0  0  0  0  0
  152.8258  140.2926  156.7238 H   0  0  0  0  0  0  0  0  0  0  0  0
  151.8077  139.1201  154.8224 H   0  0  0  0  0  0  0  0  0  0  0  0
  150.6444  141.4373  153.9613 H   0  0  0  0  0  0  0  0  0  0  0  0
  149.7609  139.9247  153.7201 H   0  0  0  0  0  0  0  0  0  0  0  0
  148.9687  142.0841  155.5210 H   0  0  0  0  0  0  0  0  0  0  0  0
  148.1701  140.5367  155.2455 H   0  0  0  0  0  0  0  0  0  0  0  0
  148.9343  140.2545  157.5612 H   0  0  0  0  0  0  0  0  0  0  0  0
  1  2  1  0  0  0  0
  1 16  1  0  0  0  0
  1 17  1  0  0  0  0
  1 18  1  0  0  0  0
  2 15  1  0  0  0  0
  2  3  2  0  0  0  0
  3  4  1  0  0  0  0
  3 19  1  0  0  0  0
  4  5  2  0  0  0  0
  4 20  1  0  0  0  0
  5  6  1  0  0  0  0
  6  7  1  0  0  0  0
  6 15  2  0  0  0  0
  7  8  1  0  0  0  0
  7 21  1  0  0  0  0
  8 13  1  0  0  0  0
  8  9  1  0  0  0  0
  8 22  1  0  0  0  0
  9 10  1  0  0  0  0
  9 23  1  0  0  0  0
  9 24  1  0  0  0  0
 10 14  1  0  0  0  0
 10 11  1  0  0  0  0
 10 25  1  0  0  0  0
 11 12  1  0  0  0  0
 11 26  1  0  0  0  0
 11 27  1  0  0  0  0
 12 13  1  0  0  0  0
 12 28  1  0  0  0  0
 12 29  1  0  0  0  0
 13 14  1  0  0  0  0
 13 30  1  0  0  0  0
M  END
> <s_m_source_file>
AV-unprocessed.smi

> <i_m_source_file_index>
2899

> <i_lp_mmshare_version>
43012

> <i_f3d_flags>
0

> <s_epik_input>
W0NIM11jMVtjSF1bY0hdbmMobjEpW05IXVtDQEhdKFtDSDJdW0NAQEhdMjMpW0NAQEhdKE8zKVtDSDJdW0NIMl0y

> <s_epik_cmdline>
J2VwaWtfcHl0aG9uJywgJy1waCcsICc3LjAnLCAnLXRuJywgJzgnLCAnLW1hJywgJzIwMCcsICctbWV0YWxfYmluZGluZycsICctaW1hZScsICc8aW5maWxlLm1hZT4nLCAnLW9tYWUnLCAnPG91dGZpbGUubWFlPic=

> <r_lp_tautomer_probability>
1

> <r_epik_Ionization_Penalty>
0.00589655

> <r_epik_Ionization_Penalty_Charging>
0

> <r_epik_Ionization_Penalty_Neutral>
0.00589655

> <r_epik_State_Penalty>
0.00375391

> <r_epik_Charging_Adjusted_Penalty>
0.00375391

> <i_epik_Tot_Q>
0

> <i_epik_Tot_abs_Q>
0

> <r_epik_Metal_State_Penalty>
-0

> <b_epik_Metal_Only>
0

> <s_lp_Force_Field>
OPLS_2005

> <r_lp_Energy>
31.8412

> <b_lp_Chiralities_Consistent>
1

> <s_lp_Variant>
AV-unprocessed.smi:2899-3

> <Gold.Version>
5.8.1

> <Gold.Id.Protein>
6NUR|6NUR_protein|mol2

> <Gold.PLP.Fitness>
35.0705

> <Gold.PLP.PLP>
-32.3136

> <Gold.PLP.part.hbond>
-1.0000

> <Gold.PLP.part.metal>
0.0000

> <Gold.PLP.part.buried>
-4.1842

> <Gold.PLP.part.nonpolar>
-27.2805

> <Gold.PLP.part.repulsive>
0.1871

> <Gold.PLP.ligand.clash>
0.0000

> <Gold.PLP.ligand.torsion>
0.1258

> <Gold.PLP.Chemscore.Hbond>
1.0000

> <Gold.PLP.Chemscore.CHOScore>
0.0000

> <Gold.PLP.Chemscore.Metal>
0.0000

> <Gold.Chemscore.Hbonds>
donor molecule, donor type, donor heavy atom, donor atom, acceptor molecule, acceptor atom, score
      L1  H     7    21       P1  8028  0.15

> <Gold.PLP.Chemscore.Internal.Correction>
0.0086

> <Gold.Rescore>
     Score         DG    S(hbond)    S(metal)    S(lipo)     H(rot)  DE(clash)    DE(int)     intcor
     15.73     -15.81       0.99        0.00      81.84       1.00       0.00       0.08       ----

> <Gold.Chemscore.Fitness>
15.7259

> <Gold.Chemscore.DG>
-15.8113

> <Gold.Chemscore.ZeroCoef>
-5.4800

> <Gold.Chemscore.Hbond>
0.9928

> <Gold.Chemscore.Metal>
0.0000

> <Gold.Chemscore.Lipo>
81.8408

> <Gold.Chemscore.Internal_Hbond>
0.0000

> <Gold.Chemscore.DEClash>
0.0048

> <Gold.Chemscore.DEInternal>
0.0806

> <Gold.Chemscore.Rot>
1.0000

> <Gold.Chemscore.Internal.Correction>
   9.000000E+99

> <Gold.Chemscore.Hbonds>
donor molecule, donor type, donor heavy atom, donor atom, acceptor molecule, acceptor atom, score
      L1  H     7    21       P1  8028  0.18

> <Gold.Chemscore.Hbond.Weighted>
-3.3159

> <Gold.Chemscore.Metal.Weighted>
-0.0000

> <Gold.Chemscore.Lipo.Weighted>
-9.5754

> <Gold.Chemscore.Internal_Hbond.Weighted>
0.0000

> <Gold.Chemscore.DEClash.Weighted>
0.0048

> <Gold.Chemscore.DEInternal.Weighted>
0.0806

> <Gold.Chemscore.Rot.Weighted>
2.5600

> <Gold.Chemscore.Internal.Correction.Weighted>
   9.000000E+99

> <Gold.Protein.RotatedTorsions>
[ 6907 6896 6895 6894 ] final  163.69 input  -60.11 | X-H torsion
[ 7974 7965 7964 7962 ] final   77.11 input  175.53 | X-H torsion
[ 8008 7997 7996 7995 ] final  -46.79 input   59.86 | X-H torsion
[ 10167 10162 10161 10158 ] final   -5.58 input  -65.29 | X-H torsion
[ 10718 10713 10712 10709 ] final   90.29 input   66.30 | X-H torsion
[ 10763 10752 10751 10750 ] final  -55.03 input  -60.55 | X-H torsion
[ 11005 11000 10999 10996 ] final  -86.18 input  -57.11 | X-H torsion

> <Gold.Protein.ActiveResidues>
 VAL166  LYS551  ARG553  GLY616  TRP617  ASP618  TYR619  PRO620  LYS621  CYS622 
 ASP623  PHE694  ASN695  SER759  ASP760  ASP761  ALA762  ILE779  LEU786  VAL792 
 PHE793  MET794  SER795  GLU796  ALA797  LYS798  CYS799  TRP800  GLU811  SER814 

> <Gold.Protein.RotatedAtoms>
  151.9214  133.3586  159.3898 H   0  0  0  0  0  0  0  0  0  0  0  0  # atno 6907 bound_to 6896
  150.7036  134.4631  159.5399 H   0  0  0  0  0  0  0  0  0  0  0  0  # atno 6908 bound_to 6896
  152.2255  134.8372  160.0531 H   0  0  0  0  0  0  0  0  0  0  0  0  # atno 6909 bound_to 6896
  145.6943  139.2562  143.1742 H   0  0  0  0  0  0  0  0  0  0  0  0  # atno 7974 bound_to 7965
  154.4010  140.1362  156.4070 H   0  0  0  0  0  0  0  0  0  0  0  0  # atno 8008 bound_to 7997
  155.7770  140.3482  155.5257 H   0  0  0  0  0  0  0  0  0  0  0  0  # atno 8009 bound_to 7997
  155.8711  140.0972  157.1540 H   0  0  0  0  0  0  0  0  0  0  0  0  # atno 8010 bound_to 7997
  140.6968  143.6292  150.8539 H   0  0  0  0  0  0  0  0  0  0  0  0  # atno 10167 bound_to 10162
  157.6958  131.0365  150.3556 H   0  0  0  0  0  0  0  0  0  0  0  0  # atno 10718 bound_to 10713
  154.1843  135.6438  153.5042 H   0  0  0  0  0  0  0  0  0  0  0  0  # atno 10763 bound_to 10752
  153.0051  135.5413  154.6482 H   0  0  0  0  0  0  0  0  0  0  0  0  # atno 10764 bound_to 10752
  154.5854  135.2929  155.0663 H   0  0  0  0  0  0  0  0  0  0  0  0  # atno 10765 bound_to 10752
  141.1633  133.7440  156.9123 H   0  0  0  0  0  0  0  0  0  0  0  0  # atno 11005 bound_to 11000
  146.0854  140.7716  142.9621 LP  0  0  0  0  0  0  0  0  0  0  0  0  # atno 17320 bound_to 7965
  144.6987  140.3554  143.7174 LP  0  0  0  0  0  0  0  0  0  0  0  0  # atno 17321 bound_to 7965
  140.0010  143.5744  152.2875 LP  0  0  0  0  0  0  0  0  0  0  0  0  # atno 17342 bound_to 10162
  139.6433  144.7656  151.2294 LP  0  0  0  0  0  0  0  0  0  0  0  0  # atno 17343 bound_to 10162
  156.3998  130.3913  149.6968 LP  0  0  0  0  0  0  0  0  0  0  0  0  # atno 17370 bound_to 10713
  156.4289  130.7805  151.2824 LP  0  0  0  0  0  0  0  0  0  0  0  0  # atno 17371 bound_to 10713
  140.1508  134.9231  157.2590 LP  0  0  0  0  0  0  0  0  0  0  0  0  # atno 17394 bound_to 11000
  140.2725  134.3444  155.7369 LP  0  0  0  0  0  0  0  0  0  0  0  0  # atno 17395 bound_to 11000

$$$$
