AV-unprocessed.smi:3126|AV-procd|sdf|11913|dock7
  -GOLD-   2272017293D 1   1.00000     0.00000
 Structure written by MMmdl.
 42 43  0  0  0  0  0  0  0  0  2 V2000
  153.3286  142.4288  162.6303 C   0  0  0  0  0  0  0  0  0  0  0  0
  153.0071  141.9791  161.1986 C   0  0  0  0  0  0  0  0  0  0  0  0
  152.1811  142.9985  160.3877 C   0  0  1  0  0  0  0  0  0  0  0  0
  152.3802  144.4466  160.8837 C   0  0  0  0  0  0  0  0  0  0  0  0
  151.5700  145.4514  160.0500 C   0  0  0  0  0  0  0  0  0  0  0  0
  151.9116  145.3476  158.5547 C   0  0  0  0  0  0  0  0  0  0  0  0
  151.7449  143.9129  158.0206 C   0  0  2  0  0  0  0  0  0  0  0  0
  150.3141  143.5409  157.9406 N   0  3  0  0  0  0  0  0  0  0  0  0
  150.0521  142.1841  157.4218 C   0  0  0  0  0  0  0  0  0  0  0  0
  150.9570  141.8693  156.2239 C   0  0  0  0  0  0  0  0  0  0  0  0
  150.5752  140.5665  155.5498 C   0  0  0  0  0  0  0  0  0  0  0  0
  149.3365  140.4297  154.8897 C   0  0  0  0  0  0  0  0  0  0  0  0
  149.0232  139.1987  154.2826 C   0  0  0  0  0  0  0  0  0  0  0  0
  149.9644  138.1529  154.3621 C   0  0  0  0  0  0  0  0  0  0  0  0
  151.1528  138.2722  154.9926 N   0  0  0  0  0  0  0  0  0  0  0  0
  151.4463  139.4563  155.5708 C   0  0  0  0  0  0  0  0  0  0  0  0
  152.5253  142.9033  158.8850 C   0  0  0  0  0  0  0  0  0  0  0  0
  153.8485  141.6388  163.1726 H   0  0  0  0  0  0  0  0  0  0  0  0
  152.4194  142.6650  163.1837 H   0  0  0  0  0  0  0  0  0  0  0  0
  153.9714  143.3085  162.6434 H   0  0  0  0  0  0  0  0  0  0  0  0
  153.9337  141.7474  160.6718 H   0  0  0  0  0  0  0  0  0  0  0  0
  152.4545  141.0408  161.2592 H   0  0  0  0  0  0  0  0  0  0  0  0
  151.1278  142.7397  160.5068 H   0  0  0  0  0  0  0  0  0  0  0  0
  152.0826  144.5365  161.9280 H   0  0  0  0  0  0  0  0  0  0  0  0
  153.4384  144.7087  160.8418 H   0  0  0  0  0  0  0  0  0  0  0  0
  150.5041  145.2758  160.1996 H   0  0  0  0  0  0  0  0  0  0  0  0
  151.7653  146.4646  160.4027 H   0  0  0  0  0  0  0  0  0  0  0  0
  151.2980  146.0416  157.9786 H   0  0  0  0  0  0  0  0  0  0  0  0
  152.9451  145.6638  158.4069 H   0  0  0  0  0  0  0  0  0  0  0  0
  152.1679  143.8804  157.0152 H   0  0  0  0  0  0  0  0  0  0  0  0
  149.9203  143.6052  158.8686 H   0  0  0  0  0  0  0  0  0  0  0  0
  150.2165  141.4558  158.2175 H   0  0  0  0  0  0  0  0  0  0  0  0
  149.0042  142.1128  157.1260 H   0  0  0  0  0  0  0  0  0  0  0  0
  150.9039  142.6760  155.4912 H   0  0  0  0  0  0  0  0  0  0  0  0
  151.9984  141.8117  156.5445 H   0  0  0  0  0  0  0  0  0  0  0  0
  148.6370  141.2519  154.8496 H   0  0  0  0  0  0  0  0  0  0  0  0
  148.0842  139.0582  153.7677 H   0  0  0  0  0  0  0  0  0  0  0  0
  149.7565  137.1955  153.9077 H   0  0  0  0  0  0  0  0  0  0  0  0
  152.4033  139.5179  156.0676 H   0  0  0  0  0  0  0  0  0  0  0  0
  153.5940  143.0806  158.7543 H   0  0  0  0  0  0  0  0  0  0  0  0
  152.3437  141.8914  158.5200 H   0  0  0  0  0  0  0  0  0  0  0  0
  149.8441  144.2107  157.3481 H   0  0  0  0  0  0  0  0  0  0  0  0
  1  2  1  0  0  0  0
  1 18  1  0  0  0  0
  1 19  1  0  0  0  0
  1 20  1  0  0  0  0
  2  3  1  0  0  0  0
  2 21  1  0  0  0  0
  2 22  1  0  0  0  0
  3 17  1  0  0  0  0
  3  4  1  0  0  0  0
  3 23  1  0  0  0  0
  4  5  1  0  0  0  0
  4 24  1  0  0  0  0
  4 25  1  0  0  0  0
  5  6  1  0  0  0  0
  5 26  1  0  0  0  0
  5 27  1  0  0  0  0
  6  7  1  0  0  0  0
  6 28  1  0  0  0  0
  6 29  1  0  0  0  0
  7  8  1  0  0  0  0
  7 17  1  0  0  0  0
  7 30  1  0  0  0  0
  8  9  1  0  0  0  0
  8 31  1  0  0  0  0
  8 42  1  0  0  0  0
  9 10  1  0  0  0  0
  9 32  1  0  0  0  0
  9 33  1  0  0  0  0
 10 11  1  0  0  0  0
 10 34  1  0  0  0  0
 10 35  1  0  0  0  0
 11 16  1  0  0  0  0
 11 12  2  0  0  0  0
 12 13  1  0  0  0  0
 12 36  1  0  0  0  0
 13 14  2  0  0  0  0
 13 37  1  0  0  0  0
 14 15  1  0  0  0  0
 14 38  1  0  0  0  0
 15 16  2  0  0  0  0
 16 39  1  0  0  0  0
 17 40  1  0  0  0  0
 17 41  1  0  0  0  0
M  CHG  1   8   1
M  END
> <s_m_source_file>
AV-unprocessed.smi

> <i_m_source_file_index>
3126

> <i_lp_mmshare_version>
43012

> <i_f3d_flags>
0

> <s_epik_input>
W0NIM11bQ0gyXVtDQEBIXTFbQ0gyXVtDSDJdW0NIMl1bQ0BIXShbQ0gyXTEpW05IXVtDSDJdW0NIMl1jMltjSF1bY0hdW2NIXW5bY0hdMg==

> <s_epik_cmdline>
J2VwaWtfcHl0aG9uJywgJy1waCcsICc3LjAnLCAnLXRuJywgJzgnLCAnLW1hJywgJzIwMCcsICctbWV0YWxfYmluZGluZycsICctaW1hZScsICc8aW5maWxlLm1hZT4nLCAnLW9tYWUnLCAnPG91dGZpbGUubWFlPic=

> <r_lp_tautomer_probability>
1

> <r_epik_Ionization_Penalty>
0.000947364

> <r_epik_Ionization_Penalty_Charging>
0.000286103

> <r_epik_Ionization_Penalty_Neutral>
0.000661261

> <r_epik_State_Penalty>
-0

> <r_epik_Charging_Adjusted_Penalty>
0.000286103

> <i_epik_Tot_Q>
1

> <i_epik_Tot_abs_Q>
1

> <r_epik_Metal_State_Penalty>
-0

> <b_epik_Metal_Only>
0

> <s_lp_Force_Field>
OPLS_2005

> <r_lp_Energy>
19.3892

> <b_lp_Chiralities_Consistent>
1

> <s_lp_Variant>
AV-unprocessed.smi:3126-4

> <Gold.Version>
5.8.1

> <Gold.Id.Protein>
6NUR|6NUR_protein|mol2

> <Gold.PLP.Fitness>
56.9741

> <Gold.PLP.PLP>
-48.8349

> <Gold.PLP.part.hbond>
-1.0000

> <Gold.PLP.part.metal>
0.0000

> <Gold.PLP.part.buried>
-5.1560

> <Gold.PLP.part.nonpolar>
-42.6411

> <Gold.PLP.part.repulsive>
0.1167

> <Gold.PLP.ligand.clash>
0.0000

> <Gold.PLP.ligand.torsion>
0.5493

> <Gold.PLP.Chemscore.Hbond>
2.0000

> <Gold.PLP.Chemscore.CHOScore>
1.0662

> <Gold.PLP.Chemscore.Metal>
0.0000

> <Gold.Chemscore.Hbonds>
donor molecule, donor type, donor heavy atom, donor atom, acceptor molecule, acceptor atom, score
      L1  H     8    42       P1  8028  2.00
      L1  C    14    38       P1  7948  1.00

> <Gold.PLP.Chemscore.Internal.Correction>
0.0392

> <Gold.Rescore>
     Score         DG    S(hbond)    S(metal)    S(lipo)     H(rot)  DE(clash)    DE(int)     intcor
     20.42     -21.75       0.85        0.00     144.29       1.35       0.69       0.64       ----

> <Gold.Chemscore.Fitness>
20.4160

> <Gold.Chemscore.DG>
-21.7535

> <Gold.Chemscore.ZeroCoef>
-5.4800

> <Gold.Chemscore.Hbond>
0.8530

> <Gold.Chemscore.Metal>
0.0000

> <Gold.Chemscore.Lipo>
144.2926

> <Gold.Chemscore.Internal_Hbond>
0.0000

> <Gold.Chemscore.DEClash>
0.6944

> <Gold.Chemscore.DEInternal>
0.6430

> <Gold.Chemscore.Rot>
1.3507

> <Gold.Chemscore.Internal.Correction>
   9.000000E+99

> <Gold.Chemscore.Hbonds>
donor molecule, donor type, donor heavy atom, donor atom, acceptor molecule, acceptor atom, score
      L1  H     8    42       P1  8028  0.43

> <Gold.Chemscore.Hbond.Weighted>
-2.8491

> <Gold.Chemscore.Metal.Weighted>
-0.0000

> <Gold.Chemscore.Lipo.Weighted>
-16.8822

> <Gold.Chemscore.Internal_Hbond.Weighted>
0.0000

> <Gold.Chemscore.DEClash.Weighted>
0.6944

> <Gold.Chemscore.DEInternal.Weighted>
0.6430

> <Gold.Chemscore.Rot.Weighted>
3.4579

> <Gold.Chemscore.Internal.Correction.Weighted>
   9.000000E+99

> <Gold.Protein.RotatedTorsions>
[ 6907 6896 6895 6894 ] final  131.45 input  -60.11 | X-H torsion
[ 7974 7965 7964 7962 ] final  -35.07 input  175.53 | X-H torsion
[ 8008 7997 7996 7995 ] final  169.65 input   59.86 | X-H torsion
[ 10167 10162 10161 10158 ] final -133.18 input  -65.29 | X-H torsion
[ 10718 10713 10712 10709 ] final  -62.44 input   66.30 | X-H torsion
[ 10763 10752 10751 10750 ] final -168.56 input  -60.55 | X-H torsion
[ 11005 11000 10999 10996 ] final -149.74 input  -57.11 | X-H torsion

> <Gold.Protein.ActiveResidues>
 VAL166  LYS551  ARG553  GLY616  TRP617  ASP618  TYR619  PRO620  LYS621  CYS622 
 ASP623  PHE694  ASN695  SER759  ASP760  ASP761  ALA762  ILE779  LEU786  VAL792 
 PHE793  MET794  SER795  GLU796  ALA797  LYS798  CYS799  TRP800  GLU811  SER814 

> <Gold.Protein.RotatedAtoms>
  152.3424  133.6083  159.5885 H   0  0  0  0  0  0  0  0  0  0  0  0  # atno 6907 bound_to 6896
  150.7487  133.9701  159.3552 H   0  0  0  0  0  0  0  0  0  0  0  0  # atno 6908 bound_to 6896
  151.7563  135.0821  160.0390 H   0  0  0  0  0  0  0  0  0  0  0  0  # atno 6909 bound_to 6896
  146.0777  140.6115  142.8923 H   0  0  0  0  0  0  0  0  0  0  0  0  # atno 7974 bound_to 7965
  156.1438  140.1558  156.8879 H   0  0  0  0  0  0  0  0  0  0  0  0  # atno 8008 bound_to 7997
  154.5010  140.0825  156.7836 H   0  0  0  0  0  0  0  0  0  0  0  0  # atno 8009 bound_to 7997
  155.4028  140.3415  155.4260 H   0  0  0  0  0  0  0  0  0  0  0  0  # atno 8010 bound_to 7997
  139.9009  143.6608  152.2595 H   0  0  0  0  0  0  0  0  0  0  0  0  # atno 10167 bound_to 10162
  156.0855  130.4209  150.1136 H   0  0  0  0  0  0  0  0  0  0  0  0  # atno 10718 bound_to 10713
  154.6616  135.2926  154.9859 H   0  0  0  0  0  0  0  0  0  0  0  0  # atno 10763 bound_to 10752
  154.0917  135.6590  153.4857 H   0  0  0  0  0  0  0  0  0  0  0  0  # atno 10764 bound_to 10752
  153.0433  135.5221  154.7569 H   0  0  0  0  0  0  0  0  0  0  0  0  # atno 10765 bound_to 10752
  140.7476  134.3443  157.5133 H   0  0  0  0  0  0  0  0  0  0  0  0  # atno 11005 bound_to 11000
  144.7272  140.4562  143.6964 LP  0  0  0  0  0  0  0  0  0  0  0  0  # atno 17320 bound_to 7965
  145.6275  139.1532  143.2987 LP  0  0  0  0  0  0  0  0  0  0  0  0  # atno 17321 bound_to 7965
  139.7026  144.7633  151.1247 LP  0  0  0  0  0  0  0  0  0  0  0  0  # atno 17342 bound_to 10162
  140.7707  143.5437  150.9283 LP  0  0  0  0  0  0  0  0  0  0  0  0  # atno 17343 bound_to 10162
  156.9157  130.9666  151.3556 LP  0  0  0  0  0  0  0  0  0  0  0  0  # atno 17370 bound_to 10713
  157.5988  130.8497  149.8769 LP  0  0  0  0  0  0  0  0  0  0  0  0  # atno 17371 bound_to 10713
  139.8794  134.9121  156.3052 LP  0  0  0  0  0  0  0  0  0  0  0  0  # atno 17394 bound_to 11000
  140.9780  133.7285  156.0631 LP  0  0  0  0  0  0  0  0  0  0  0  0  # atno 17395 bound_to 11000

$$$$
