AV-unprocessed.smi:442|AV-procd|sdf|2583|dock1
  -GOLD-   2262022573D 1   1.00000     0.00000
 Structure written by MMmdl.
 37 37  0  0  0  0  0  0  0  0  3 V2000
  152.3271  143.9208  161.6181 C   0  0  0  0  0  0  0  0  0  0  0  0
  152.9318  142.5217  161.8051 C   0  0  0  0  0  0  0  0  0  0  0  0
  153.6154  141.9605  160.5425 C   0  0  2  0  0  0  0  0  0  0  0  0
  153.2060  142.7389  159.2844 C   0  0  0  0  0  0  0  0  0  0  0  0
  153.2833  140.5484  160.3592 N   0  0  0  0  0  0  0  0  0  0  0  0
  154.0102  139.6481  159.6788 C   0  0  0  0  0  0  0  0  0  0  0  0
  155.0812  139.9137  159.1312 O   0  0  0  0  0  0  0  0  0  0  0  0
  153.4403  138.2230  159.6376 C   0  0  0  0  0  0  0  0  0  0  0  0
  152.1799  138.1223  158.8791 N   0  0  0  0  0  0  0  0  0  0  0  0
  151.1153  137.4610  159.5168 C   0  0  0  0  0  0  0  0  0  0  0  0
  149.9181  137.2952  158.9280 C   0  0  0  0  0  0  0  0  0  0  0  0
  148.8402  136.6046  159.6029 N   0  3  0  0  0  0  0  0  0  0  0  0
  147.9714  136.0636  158.9265 O   0  0  0  0  0  0  0  0  0  0  0  0
  148.8243  136.5802  160.8300 O   0  5  0  0  0  0  0  0  0  0  0  0
  149.7416  137.8265  157.5922 C   0  0  0  0  0  0  0  0  0  0  0  0
  150.7567  138.4643  156.9550 C   0  0  0  0  0  0  0  0  0  0  0  0
  150.6209  139.0238  155.5912 C   0  0  0  0  0  0  0  0  0  0  0  0
  149.4245  138.8163  155.0267 N   0  0  0  0  0  0  0  0  0  0  0  0
  151.4769  139.6380  154.9551 O   0  0  0  0  0  0  0  0  0  0  0  0
  152.0801  138.6375  157.6137 C   0  0  0  0  0  0  0  0  0  0  0  0
  153.0540  139.1963  157.1019 O   0  0  0  0  0  0  0  0  0  0  0  0
  151.8075  144.2406  162.5215 H   0  0  0  0  0  0  0  0  0  0  0  0
  151.6073  143.9322  160.7992 H   0  0  0  0  0  0  0  0  0  0  0  0
  153.0943  144.6642  161.4007 H   0  0  0  0  0  0  0  0  0  0  0  0
  153.6436  142.5457  162.6314 H   0  0  0  0  0  0  0  0  0  0  0  0
  152.1368  141.8407  162.1112 H   0  0  0  0  0  0  0  0  0  0  0  0
  154.6939  142.0818  160.6594 H   0  0  0  0  0  0  0  0  0  0  0  0
  153.4638  143.7946  159.3749 H   0  0  0  0  0  0  0  0  0  0  0  0
  152.1320  142.6732  159.1064 H   0  0  0  0  0  0  0  0  0  0  0  0
  153.7147  142.3524  158.4005 H   0  0  0  0  0  0  0  0  0  0  0  0
  152.4222  140.2318  160.7805 H   0  0  0  0  0  0  0  0  0  0  0  0
  154.2004  137.5684  159.2093 H   0  0  0  0  0  0  0  0  0  0  0  0
  153.2996  137.8580  160.6570 H   0  0  0  0  0  0  0  0  0  0  0  0
  151.3447  137.0924  160.5062 H   0  0  0  0  0  0  0  0  0  0  0  0
  148.7780  137.7009  157.1216 H   0  0  0  0  0  0  0  0  0  0  0  0
  149.2350  139.1620  154.0975 H   0  0  0  0  0  0  0  0  0  0  0  0
  148.7130  138.3134  155.5371 H   0  0  0  0  0  0  0  0  0  0  0  0
  1  2  1  0  0  0  0
  1 22  1  0  0  0  0
  1 23  1  0  0  0  0
  1 24  1  0  0  0  0
  2  3  1  0  0  0  0
  2 25  1  0  0  0  0
  2 26  1  0  0  0  0
  3  4  1  0  0  0  0
  3  5  1  0  0  0  0
  3 27  1  0  0  0  0
  4 28  1  0  0  0  0
  4 29  1  0  0  0  0
  4 30  1  0  0  0  0
  5  6  1  0  0  0  0
  5 31  1  0  0  0  0
  6  7  2  0  0  0  0
  6  8  1  0  0  0  0
  8  9  1  0  0  0  0
  8 32  1  0  0  0  0
  8 33  1  0  0  0  0
  9 20  1  0  0  0  0
  9 10  1  0  0  0  0
 10 11  2  0  0  0  0
 10 34  1  0  0  0  0
 11 12  1  0  0  0  0
 11 15  1  0  0  0  0
 12 13  2  0  0  0  0
 12 14  1  0  0  0  0
 15 16  2  0  0  0  0
 15 35  1  0  0  0  0
 16 17  1  0  0  0  0
 16 20  1  0  0  0  0
 17 18  1  0  0  0  0
 17 19  2  0  0  0  0
 18 36  1  0  0  0  0
 18 37  1  0  0  0  0
 20 21  2  0  0  0  0
M  CHG  1  12   1
M  CHG  1  14  -1
M  END
> <s_m_source_file>
AV-unprocessed.smi

> <i_m_source_file_index>
442

> <i_lp_mmshare_version>
43012

> <i_f3d_flags>
0

> <s_epik_input>
W0NIM11bQ0gyXVtDQEhdKFtDSDNdKVtOSF1DKD1PKVtDSDJdbjFbY0hdYyhbTitdKD1PKVtPLV0pW2NIXWMoYzE9TylDKD1PKVtOSDJd

> <s_epik_cmdline>
J2VwaWtfcHl0aG9uJywgJy1waCcsICc3LjAnLCAnLXRuJywgJzgnLCAnLW1hJywgJzIwMCcsICctbWV0YWxfYmluZGluZycsICctaW1hZScsICc8aW5maWxlLm1hZT4nLCAnLW9tYWUnLCAnPG91dGZpbGUubWFlPic=

> <r_lp_tautomer_probability>
1

> <r_epik_Ionization_Penalty>
2.86914e-06

> <r_epik_Ionization_Penalty_Charging>
2.2828e-12

> <r_epik_Ionization_Penalty_Neutral>
2.86914e-06

> <r_epik_State_Penalty>
-0

> <r_epik_Charging_Adjusted_Penalty>
2.2828e-12

> <i_epik_Tot_Q>
0

> <i_epik_Tot_abs_Q>
2

> <r_epik_Metal_State_Penalty>
-0

> <b_epik_Metal_Only>
0

> <s_lp_Force_Field>
OPLS_2005

> <r_lp_Energy>
21.8648

> <b_lp_Chiralities_Consistent>
1

> <s_lp_Variant>
AV-unprocessed.smi:442-1

> <Gold.Version>
5.8.1

> <Gold.Id.Protein>
6NUR|6NUR_protein|mol2

> <Gold.PLP.Fitness>
42.4147

> <Gold.PLP.PLP>
-34.6515

> <Gold.PLP.part.hbond>
-4.0000

> <Gold.PLP.part.metal>
0.0000

> <Gold.PLP.part.buried>
-6.4585

> <Gold.PLP.part.nonpolar>
-25.0057

> <Gold.PLP.part.repulsive>
0.1919

> <Gold.PLP.ligand.clash>
0.0000

> <Gold.PLP.ligand.torsion>
1.3307

> <Gold.PLP.Chemscore.Hbond>
3.4160

> <Gold.PLP.Chemscore.CHOScore>
0.0000

> <Gold.PLP.Chemscore.Metal>
0.0000

> <Gold.Chemscore.Hbonds>
donor molecule, donor type, donor heavy atom, donor atom, acceptor molecule, acceptor atom, score
      P1  H  6931  6943       L1    14  1.00
      P1  H  7989  7998       L1    19  1.00
      P1  H  7997  8008       L1     7  0.85
      P1  H  7997  8009       L1    21  0.59

> <Gold.PLP.Chemscore.Internal.Correction>
0.1767

> <Gold.Rescore>
     Score         DG    S(hbond)    S(metal)    S(lipo)     H(rot)  DE(clash)    DE(int)     intcor
     16.11     -19.90       3.57        0.00      65.76       2.03       0.08       3.72       ----

> <Gold.Chemscore.Fitness>
16.1051

> <Gold.Chemscore.DG>
-19.9043

> <Gold.Chemscore.ZeroCoef>
-5.4800

> <Gold.Chemscore.Hbond>
3.5741

> <Gold.Chemscore.Metal>
0.0000

> <Gold.Chemscore.Lipo>
65.7592

> <Gold.Chemscore.Internal_Hbond>
0.0000

> <Gold.Chemscore.DEClash>
0.0805

> <Gold.Chemscore.DEInternal>
3.7187

> <Gold.Chemscore.Rot>
2.0340

> <Gold.Chemscore.Internal.Correction>
   9.000000E+99

> <Gold.Chemscore.Hbonds>
donor molecule, donor type, donor heavy atom, donor atom, acceptor molecule, acceptor atom, score
      P1  H  6931  6943       L1    14  0.90
      P1  H  7989  7998       L1    19  0.99
      P1  H  7997  8008       L1     7  0.85
      P1  H  7997  8009       L1    21  0.58

> <Gold.Chemscore.Hbond.Weighted>
-11.9375

> <Gold.Chemscore.Metal.Weighted>
-0.0000

> <Gold.Chemscore.Lipo.Weighted>
-7.6938

> <Gold.Chemscore.Internal_Hbond.Weighted>
0.0000

> <Gold.Chemscore.DEClash.Weighted>
0.0805

> <Gold.Chemscore.DEInternal.Weighted>
3.7187

> <Gold.Chemscore.Rot.Weighted>
5.2071

> <Gold.Chemscore.Internal.Correction.Weighted>
   9.000000E+99

> <Gold.Protein.RotatedTorsions>
[ 6907 6896 6895 6894 ] final   53.21 input  -60.11 | X-H torsion
[ 7974 7965 7964 7962 ] final   81.10 input  175.53 | X-H torsion
[ 8008 7997 7996 7995 ] final -147.72 input   59.86 | X-H torsion
[ 10167 10162 10161 10158 ] final  171.27 input  -65.29 | X-H torsion
[ 10718 10713 10712 10709 ] final    2.48 input   66.30 | X-H torsion
[ 10763 10752 10751 10750 ] final  -22.39 input  -60.55 | X-H torsion
[ 11005 11000 10999 10996 ] final   81.77 input  -57.11 | X-H torsion

> <Gold.Protein.ActiveResidues>
 VAL166  LYS551  ARG553  GLY616  TRP617  ASP618  TYR619  PRO620  LYS621  CYS622 
 ASP623  PHE694  ASN695  SER759  ASP760  ASP761  ALA762  ILE779  LEU786  VAL792 
 PHE793  MET794  SER795  GLU796  ALA797  LYS798  CYS799  TRP800  GLU811  SER814 

> <Gold.Protein.RotatedAtoms>
  152.3313  134.7255  160.0288 H   0  0  0  0  0  0  0  0  0  0  0  0  # atno 6907 bound_to 6896
  151.7671  133.3333  159.3442 H   0  0  0  0  0  0  0  0  0  0  0  0  # atno 6908 bound_to 6896
  150.7425  134.5984  159.6068 H   0  0  0  0  0  0  0  0  0  0  0  0  # atno 6909 bound_to 6896
  145.6425  139.2429  143.2022 H   0  0  0  0  0  0  0  0  0  0  0  0  # atno 7974 bound_to 7965
  155.5801  140.0642  157.2785 H   0  0  0  0  0  0  0  0  0  0  0  0  # atno 8008 bound_to 7997
  154.4335  140.1853  156.1014 H   0  0  0  0  0  0  0  0  0  0  0  0  # atno 8009 bound_to 7997
  156.0311  140.3306  155.7145 H   0  0  0  0  0  0  0  0  0  0  0  0  # atno 8010 bound_to 7997
  139.5042  144.3504  151.9928 H   0  0  0  0  0  0  0  0  0  0  0  0  # atno 10167 bound_to 10162
  156.8636  130.5595  149.5661 H   0  0  0  0  0  0  0  0  0  0  0  0  # atno 10718 bound_to 10713
  153.6511  135.6981  153.5208 H   0  0  0  0  0  0  0  0  0  0  0  0  # atno 10763 bound_to 10752
  153.2705  135.4216  155.0983 H   0  0  0  0  0  0  0  0  0  0  0  0  # atno 10764 bound_to 10752
  154.8476  135.3577  154.6056 H   0  0  0  0  0  0  0  0  0  0  0  0  # atno 10765 bound_to 10752
  139.9086  134.8021  156.2086 H   0  0  0  0  0  0  0  0  0  0  0  0  # atno 11005 bound_to 11000
  146.1269  140.7236  142.9431 LP  0  0  0  0  0  0  0  0  0  0  0  0  # atno 17320 bound_to 7965
  144.7152  140.4184  143.7050 LP  0  0  0  0  0  0  0  0  0  0  0  0  # atno 17321 bound_to 7965
  140.2941  144.3721  150.6080 LP  0  0  0  0  0  0  0  0  0  0  0  0  # atno 17342 bound_to 10162
  140.5924  143.2167  151.7228 LP  0  0  0  0  0  0  0  0  0  0  0  0  # atno 17343 bound_to 10162
  156.0763  130.5785  150.9480 LP  0  0  0  0  0  0  0  0  0  0  0  0  # atno 17370 bound_to 10713
  157.6236  131.0927  150.8576 LP  0  0  0  0  0  0  0  0  0  0  0  0  # atno 17371 bound_to 10713
  141.0480  133.6903  156.1719 LP  0  0  0  0  0  0  0  0  0  0  0  0  # atno 17394 bound_to 11000
  140.6854  134.4722  157.5589 LP  0  0  0  0  0  0  0  0  0  0  0  0  # atno 17395 bound_to 11000

$$$$
