AV-unprocessed.smi:3038|AV-procd|sdf|11588|dock7
  -GOLD-   2272016563D 1   1.00000     0.00000
 Structure written by MMmdl.
 37 39  0  0  0  0  0  0  0  0  2 V2000
  150.5943  140.1676  154.8485 O   0  0  0  0  0  0  0  0  0  0  0  0
  149.7957  141.0922  154.9947 C   0  0  0  0  0  0  0  0  0  0  0  0
  148.5519  141.1757  154.1077 C   0  0  0  0  0  0  0  0  0  0  0  0
  147.7092  140.0058  154.2726 N   0  0  0  0  0  0  0  0  0  0  0  0
  147.7021  138.8328  153.6360 C   0  0  0  0  0  0  0  0  0  0  0  0
  146.7449  138.0376  154.0887 N   0  0  0  0  0  0  0  0  0  0  0  0
  146.1395  138.8012  155.0727 N   0  0  0  0  0  0  0  0  0  0  0  0
  146.7069  139.9704  155.1862 N   0  0  0  0  0  0  0  0  0  0  0  0
  149.9452  142.0598  155.9135 N   0  0  0  0  0  0  0  0  0  0  0  0
  151.0661  142.1773  156.8403 C   0  0  2  0  0  0  0  0  0  0  0  0
  150.8297  141.3197  158.0973 C   0  0  0  0  0  0  0  0  0  0  0  0
  151.9542  141.5220  159.1270 C   0  0  0  0  0  0  0  0  0  0  0  0
  152.1004  142.9548  159.4849 N   0  3  1  0  0  0  0  0  0  0  0  0
  153.1021  143.1626  160.5532 C   0  0  0  0  0  0  0  0  0  0  0  0
  153.1863  142.0199  161.5381 C   0  0  0  0  0  0  0  0  0  0  0  0
  152.5006  143.3093  161.9316 C   0  0  0  0  0  0  0  0  0  0  0  0
  152.3729  143.7944  158.2916 C   0  0  0  0  0  0  0  0  0  0  0  0
  151.2541  143.6480  157.2468 C   0  0  0  0  0  0  0  0  0  0  0  0
  147.9700  142.0636  154.3593 H   0  0  0  0  0  0  0  0  0  0  0  0
  148.8456  141.2683  153.0611 H   0  0  0  0  0  0  0  0  0  0  0  0
  148.3878  138.5669  152.8450 H   0  0  0  0  0  0  0  0  0  0  0  0
  149.2359  142.7778  155.9600 H   0  0  0  0  0  0  0  0  0  0  0  0
  151.9795  141.8406  156.3456 H   0  0  0  0  0  0  0  0  0  0  0  0
  149.8725  141.5822  158.5507 H   0  0  0  0  0  0  0  0  0  0  0  0
  150.7656  140.2648  157.8275 H   0  0  0  0  0  0  0  0  0  0  0  0
  151.7350  140.9413  160.0238 H   0  0  0  0  0  0  0  0  0  0  0  0
  152.8990  141.1464  158.7304 H   0  0  0  0  0  0  0  0  0  0  0  0
  153.9944  143.7230  160.2786 H   0  0  0  0  0  0  0  0  0  0  0  0
  152.5565  141.1473  161.3731 H   0  0  0  0  0  0  0  0  0  0  0  0
  154.1562  141.8147  161.9868 H   0  0  0  0  0  0  0  0  0  0  0  0
  153.0192  143.9535  162.6388 H   0  0  0  0  0  0  0  0  0  0  0  0
  151.4162  143.2930  162.0263 H   0  0  0  0  0  0  0  0  0  0  0  0
  152.4564  144.8399  158.5907 H   0  0  0  0  0  0  0  0  0  0  0  0
  153.3330  143.5120  157.8569 H   0  0  0  0  0  0  0  0  0  0  0  0
  151.4871  144.2526  156.3695 H   0  0  0  0  0  0  0  0  0  0  0  0
  150.3230  144.0432  157.6563 H   0  0  0  0  0  0  0  0  0  0  0  0
  151.2115  143.2557  159.8585 H   0  0  0  0  0  0  0  0  0  0  0  0
  1  2  2  0  0  0  0
  2  3  1  0  0  0  0
  2  9  1  0  0  0  0
  3  4  1  0  0  0  0
  3 19  1  0  0  0  0
  3 20  1  0  0  0  0
  4  8  1  0  0  0  0
  4  5  1  0  0  0  0
  5  6  2  0  0  0  0
  5 21  1  0  0  0  0
  6  7  1  0  0  0  0
  7  8  2  0  0  0  0
  9 10  1  0  0  0  0
  9 22  1  0  0  0  0
 10 18  1  0  0  0  0
 10 11  1  0  0  0  0
 10 23  1  0  0  0  0
 11 12  1  0  0  0  0
 11 24  1  0  0  0  0
 11 25  1  0  0  0  0
 12 13  1  0  0  0  0
 12 26  1  0  0  0  0
 12 27  1  0  0  0  0
 13 14  1  0  0  0  0
 13 17  1  0  0  0  0
 13 37  1  0  0  0  0
 14 16  1  0  0  0  0
 14 15  1  0  0  0  0
 14 28  1  0  0  0  0
 15 16  1  0  0  0  0
 15 29  1  0  0  0  0
 15 30  1  0  0  0  0
 16 31  1  0  0  0  0
 16 32  1  0  0  0  0
 17 18  1  0  0  0  0
 17 33  1  0  0  0  0
 17 34  1  0  0  0  0
 18 35  1  0  0  0  0
 18 36  1  0  0  0  0
M  CHG  1  13   1
M  END
> <s_m_source_file>
AV-unprocessed.smi

> <i_m_source_file_index>
3038

> <i_lp_mmshare_version>
43012

> <i_f3d_flags>
0

> <s_epik_input>
bjFubltjSF1uMVtDSDJdQyg9TylbTkhdW0NIXTJbQ0gyXVtDSDJdTihbQ0gyXVtDSDJdMilbQ0hdM1tDSDJdW0NIMl0z

> <s_epik_cmdline>
J2VwaWtfcHl0aG9uJywgJy1waCcsICc3LjAnLCAnLXRuJywgJzgnLCAnLW1hJywgJzIwMCcsICctbWV0YWxfYmluZGluZycsICctaW1hZScsICc8aW5maWxlLm1hZT4nLCAnLW9tYWUnLCAnPG91dGZpbGUubWFlPic=

> <r_lp_tautomer_probability>
1

> <r_epik_Ionization_Penalty>
0.284275

> <r_epik_Ionization_Penalty_Charging>
0.284273

> <r_epik_Ionization_Penalty_Neutral>
2.31262e-06

> <r_epik_State_Penalty>
0.277002

> <r_epik_Charging_Adjusted_Penalty>
0.561274

> <i_epik_Tot_Q>
1

> <i_epik_Tot_abs_Q>
1

> <r_epik_Metal_State_Penalty>
0.277002

> <b_epik_Metal_Only>
0

> <s_lp_Force_Field>
OPLS_2005

> <r_lp_Energy>
27.0237

> <b_lp_Chiralities_Consistent>
1

> <s_lp_Variant>
AV-unprocessed.smi:3038-1

> <Gold.Version>
5.8.1

> <Gold.Id.Protein>
6NUR|6NUR_protein|mol2

> <Gold.PLP.Fitness>
45.6021

> <Gold.PLP.PLP>
-36.1841

> <Gold.PLP.part.hbond>
-2.0000

> <Gold.PLP.part.metal>
0.0000

> <Gold.PLP.part.buried>
-3.5373

> <Gold.PLP.part.nonpolar>
-30.4608

> <Gold.PLP.part.repulsive>
0.4790

> <Gold.PLP.ligand.clash>
0.0000

> <Gold.PLP.ligand.torsion>
1.5894

> <Gold.PLP.Chemscore.Hbond>
1.8800

> <Gold.PLP.Chemscore.CHOScore>
1.8984

> <Gold.PLP.Chemscore.Metal>
0.0000

> <Gold.Chemscore.Hbonds>
donor molecule, donor type, donor heavy atom, donor atom, acceptor molecule, acceptor atom, score
      L1  H     9    22       P1  8028  0.88
      P1  H  7989  7998       L1     1  0.95
      L1  C     5    21       P1  7948  0.90
      L1  C     5    21       P1  7957  0.99

> <Gold.PLP.Chemscore.Internal.Correction>
1.2615

> <Gold.Rescore>
     Score         DG    S(hbond)    S(metal)    S(lipo)     H(rot)  DE(clash)    DE(int)     intcor
     14.40     -15.92       1.68        0.00      90.53       2.25       0.03       1.49       ----

> <Gold.Chemscore.Fitness>
14.3980

> <Gold.Chemscore.DG>
-15.9212

> <Gold.Chemscore.ZeroCoef>
-5.4800

> <Gold.Chemscore.Hbond>
1.6814

> <Gold.Chemscore.Metal>
0.0000

> <Gold.Chemscore.Lipo>
90.5336

> <Gold.Chemscore.Internal_Hbond>
0.0000

> <Gold.Chemscore.DEClash>
0.0347

> <Gold.Chemscore.DEInternal>
1.4885

> <Gold.Chemscore.Rot>
2.2528

> <Gold.Chemscore.Internal.Correction>
   9.000000E+99

> <Gold.Chemscore.Hbonds>
donor molecule, donor type, donor heavy atom, donor atom, acceptor molecule, acceptor atom, score
      L1  H     9    22       P1  8028  0.84
      P1  H  7989  7998       L1     1  0.21

> <Gold.Chemscore.Hbond.Weighted>
-5.6160

> <Gold.Chemscore.Metal.Weighted>
-0.0000

> <Gold.Chemscore.Lipo.Weighted>
-10.5924

> <Gold.Chemscore.Internal_Hbond.Weighted>
0.0000

> <Gold.Chemscore.DEClash.Weighted>
0.0347

> <Gold.Chemscore.DEInternal.Weighted>
1.4885

> <Gold.Chemscore.Rot.Weighted>
5.7672

> <Gold.Chemscore.Internal.Correction.Weighted>
   9.000000E+99

> <Gold.Protein.RotatedTorsions>
[ 6907 6896 6895 6894 ] final -101.39 input  -60.11 | X-H torsion
[ 7974 7965 7964 7962 ] final  -98.63 input  175.53 | X-H torsion
[ 8008 7997 7996 7995 ] final -161.73 input   59.86 | X-H torsion
[ 10167 10162 10161 10158 ] final  155.08 input  -65.29 | X-H torsion
[ 10718 10713 10712 10709 ] final  -89.64 input   66.30 | X-H torsion
[ 10763 10752 10751 10750 ] final -144.68 input  -60.55 | X-H torsion
[ 11005 11000 10999 10996 ] final -102.93 input  -57.11 | X-H torsion

> <Gold.Protein.ActiveResidues>
 VAL166  LYS551  ARG553  GLY616  TRP617  ASP618  TYR619  PRO620  LYS621  CYS622 
 ASP623  PHE694  ASN695  SER759  ASP760  ASP761  ALA762  ILE779  LEU786  VAL792 
 PHE793  MET794  SER795  GLU796  ALA797  LYS798  CYS799  TRP800  GLU811  SER814 

> <Gold.Protein.RotatedAtoms>
  150.7153  134.0741  159.3874 H   0  0  0  0  0  0  0  0  0  0  0  0  # atno 6907 bound_to 6896
  151.8724  135.0482  160.0490 H   0  0  0  0  0  0  0  0  0  0  0  0  # atno 6908 bound_to 6896
  152.2632  133.5280  159.5431 H   0  0  0  0  0  0  0  0  0  0  0  0  # atno 6909 bound_to 6896
  145.3181  140.9415  143.2731 H   0  0  0  0  0  0  0  0  0  0  0  0  # atno 7974 bound_to 7965
  155.7965  140.0885  157.1981 H   0  0  0  0  0  0  0  0  0  0  0  0  # atno 8008 bound_to 7997
  154.3983  140.1480  156.3282 H   0  0  0  0  0  0  0  0  0  0  0  0  # atno 8009 bound_to 7997
  155.8506  140.3435  155.5693 H   0  0  0  0  0  0  0  0  0  0  0  0  # atno 8010 bound_to 7997
  139.4822  144.5130  151.7995 H   0  0  0  0  0  0  0  0  0  0  0  0  # atno 10167 bound_to 10162
  155.9985  130.4880  150.5202 H   0  0  0  0  0  0  0  0  0  0  0  0  # atno 10718 bound_to 10713
  154.8417  135.3433  154.6385 H   0  0  0  0  0  0  0  0  0  0  0  0  # atno 10763 bound_to 10752
  153.6996  135.6970  153.5071 H   0  0  0  0  0  0  0  0  0  0  0  0  # atno 10764 bound_to 10752
  153.2533  135.4346  155.0774 H   0  0  0  0  0  0  0  0  0  0  0  0  # atno 10765 bound_to 10752
  141.1168  133.8598  157.1421 H   0  0  0  0  0  0  0  0  0  0  0  0  # atno 11005 bound_to 11000
  144.8961  139.4710  143.6655 LP  0  0  0  0  0  0  0  0  0  0  0  0  # atno 17320 bound_to 7965
  146.3092  139.7688  142.9032 LP  0  0  0  0  0  0  0  0  0  0  0  0  # atno 17321 bound_to 7965
  140.4635  144.1688  150.5909 LP  0  0  0  0  0  0  0  0  0  0  0  0  # atno 17342 bound_to 10162
  140.4459  143.2507  151.9412 LP  0  0  0  0  0  0  0  0  0  0  0  0  # atno 17343 bound_to 10162
  157.3164  131.0673  151.1963 LP  0  0  0  0  0  0  0  0  0  0  0  0  # atno 17370 bound_to 10713
  157.2892  130.6788  149.6105 LP  0  0  0  0  0  0  0  0  0  0  0  0  # atno 17371 bound_to 10713
  140.0096  134.9994  157.0366 LP  0  0  0  0  0  0  0  0  0  0  0  0  # atno 17394 bound_to 11000
  140.4622  134.1472  155.7193 LP  0  0  0  0  0  0  0  0  0  0  0  0  # atno 17395 bound_to 11000

$$$$
