AV-unprocessed.smi:688|AV-procd|sdf|3356|dock4
  -GOLD-   22720 0333D 1   1.00000     0.00000
 Structure written by MMmdl.
 35 36  0  0  0  0  0  0  0  0  2 V2000
  152.0579  135.5182  156.7804 O   0  0  0  0  0  0  0  0  0  0  0  0
  151.5779  136.5211  156.2535 C   0  0  0  0  0  0  0  0  0  0  0  0
  152.2286  137.2255  155.2817 N   0  5  0  0  0  0  0  0  0  0  0  0
  151.7080  138.3390  154.6794 C   0  0  0  0  0  0  0  0  0  0  0  0
  152.3175  138.9631  153.8102 O   0  0  0  0  0  0  0  0  0  0  0  0
  150.4688  138.7729  155.0573 N   0  0  0  0  0  0  0  0  0  0  0  0
  149.8297  139.9548  154.4614 C   0  0  0  0  0  0  0  0  0  0  0  0
  149.5423  141.0485  155.5139 C   0  0  2  0  0  0  0  0  0  0  0  0
  148.7359  142.0355  154.9006 O   0  0  0  0  0  0  0  0  0  0  0  0
  150.8308  141.7433  155.9859 C   0  0  0  0  0  0  0  0  0  0  0  0
  150.7185  142.0340  157.3696 O   0  0  0  0  0  0  0  0  0  0  0  0
  151.5147  143.1363  157.7721 C   0  0  0  0  0  0  0  0  0  0  0  0
  152.0536  142.9540  159.1780 C   0  0  0  0  0  0  0  0  0  0  0  0
  151.6968  143.8648  160.1950 C   0  0  0  0  0  0  0  0  0  0  0  0
  152.2064  143.7071  161.4986 C   0  0  0  0  0  0  0  0  0  0  0  0
  153.0789  142.6404  161.7898 C   0  0  0  0  0  0  0  0  0  0  0  0
  153.7021  142.4460  163.3869 Cl  0  0  0  0  0  0  0  0  0  0  0  0
  153.4440  141.7339  160.7751 C   0  0  0  0  0  0  0  0  0  0  0  0
  152.9352  141.8920  159.4712 C   0  0  0  0  0  0  0  0  0  0  0  0
  149.7620  138.0906  156.0614 C   0  0  0  0  0  0  0  0  0  0  0  0
  150.2597  136.9958  156.6688 C   0  0  0  0  0  0  0  0  0  0  0  0
  149.3685  136.1784  157.9028 Cl  0  0  0  0  0  0  0  0  0  0  0  0
  150.4882  140.3482  153.6852 H   0  0  0  0  0  0  0  0  0  0  0  0
  148.9175  139.6820  153.9279 H   0  0  0  0  0  0  0  0  0  0  0  0
  149.0241  140.6239  156.3749 H   0  0  0  0  0  0  0  0  0  0  0  0
  149.0255  142.8846  155.1965 H   0  0  0  0  0  0  0  0  0  0  0  0
  151.6815  141.0739  155.8488 H   0  0  0  0  0  0  0  0  0  0  0  0
  151.0325  142.6453  155.4050 H   0  0  0  0  0  0  0  0  0  0  0  0
  152.3434  143.2642  157.0735 H   0  0  0  0  0  0  0  0  0  0  0  0
  150.9244  144.0535  157.7478 H   0  0  0  0  0  0  0  0  0  0  0  0
  151.0297  144.6861  159.9778 H   0  0  0  0  0  0  0  0  0  0  0  0
  151.9271  144.4059  162.2735 H   0  0  0  0  0  0  0  0  0  0  0  0
  154.1150  140.9166  160.9950 H   0  0  0  0  0  0  0  0  0  0  0  0
  153.2220  141.1935  158.6987 H   0  0  0  0  0  0  0  0  0  0  0  0
  148.7990  138.5130  156.3088 H   0  0  0  0  0  0  0  0  0  0  0  0
  1  2  2  0  0  0  0
  2 21  1  0  0  0  0
  2  3  1  0  0  0  0
  3  4  1  0  0  0  0
  4  5  2  0  0  0  0
  4  6  1  0  0  0  0
  6  7  1  0  0  0  0
  6 20  1  0  0  0  0
  7  8  1  0  0  0  0
  7 23  1  0  0  0  0
  7 24  1  0  0  0  0
  8  9  1  0  0  0  0
  8 10  1  0  0  0  0
  8 25  1  0  0  0  0
  9 26  1  0  0  0  0
 10 11  1  0  0  0  0
 10 27  1  0  0  0  0
 10 28  1  0  0  0  0
 11 12  1  0  0  0  0
 12 13  1  0  0  0  0
 12 29  1  0  0  0  0
 12 30  1  0  0  0  0
 13 19  1  0  0  0  0
 13 14  2  0  0  0  0
 14 15  1  0  0  0  0
 14 31  1  0  0  0  0
 15 16  2  0  0  0  0
 15 32  1  0  0  0  0
 16 17  1  0  0  0  0
 16 18  1  0  0  0  0
 18 19  2  0  0  0  0
 18 33  1  0  0  0  0
 19 34  1  0  0  0  0
 20 21  2  0  0  0  0
 20 35  1  0  0  0  0
 21 22  1  0  0  0  0
M  CHG  1   3  -1
M  END
> <s_m_source_file>
AV-unprocessed.smi

> <i_m_source_file_index>
688

> <i_lp_mmshare_version>
43012

> <i_f3d_flags>
0

> <s_epik_input>
Tz1jMVtuSF1jKD1PKW4oW2NIXWMxQ2wpW0NIMl1bQ0BIXShbT0hdKVtDSDJdT1tDSDJdYzJbY0hdW2NIXWMoQ2wpW2NIXVtjSF0y

> <s_epik_cmdline>
J2VwaWtfcHl0aG9uJywgJy1waCcsICc3LjAnLCAnLXRuJywgJzgnLCAnLW1hJywgJzIwMCcsICctbWV0YWxfYmluZGluZycsICctaW1hZScsICc8aW5maWxlLm1hZT4nLCAnLW9tYWUnLCAnPG91dGZpbGUubWFlPic=

> <r_epik_Ionization_Penalty>
1.82111

> <r_epik_Ionization_Penalty_Charging>
5.03334e-08

> <r_epik_Ionization_Penalty_Neutral>
1.82111

> <r_epik_State_Penalty>
1.93633

> <r_epik_Charging_Adjusted_Penalty>
1.93633

> <i_epik_Tot_Q>
-1

> <i_epik_Tot_abs_Q>
1

> <r_epik_Metal_State_Penalty>
0.0147818

> <b_epik_Metal_Only>
0

> <s_lp_Force_Field>
OPLS_2005

> <r_lp_Energy>
25.7398

> <b_lp_Chiralities_Consistent>
1

> <s_lp_Variant>
AV-unprocessed.smi:688-3

> <Gold.Version>
5.8.1

> <Gold.Id.Protein>
6NUR|6NUR_protein|mol2

> <Gold.PLP.Fitness>
53.0597

> <Gold.PLP.PLP>
-45.3974

> <Gold.PLP.part.hbond>
-4.2233

> <Gold.PLP.part.metal>
0.0000

> <Gold.PLP.part.buried>
-3.8379

> <Gold.PLP.part.nonpolar>
-37.3235

> <Gold.PLP.part.repulsive>
0.2530

> <Gold.PLP.ligand.clash>
0.0000

> <Gold.PLP.ligand.torsion>
0.9681

> <Gold.PLP.Chemscore.Hbond>
3.1273

> <Gold.PLP.Chemscore.CHOScore>
0.0000

> <Gold.PLP.Chemscore.Metal>
0.0000

> <Gold.Chemscore.Hbonds>
donor molecule, donor type, donor heavy atom, donor atom, acceptor molecule, acceptor atom, score
      L1  H     9    26       P1  8028  1.00
      P1  H  7989  7998       L1     5  0.53
      P1  H 10752 10763       L1     3  0.47

> <Gold.PLP.Chemscore.Internal.Correction>
0.2166

> <Gold.Rescore>
     Score         DG    S(hbond)    S(metal)    S(lipo)     H(rot)  DE(clash)    DE(int)     intcor
     15.98     -17.35       1.59        0.00     118.61       2.85       0.29       1.08       ----

> <Gold.Chemscore.Fitness>
15.9771

> <Gold.Chemscore.DG>
-17.3467

> <Gold.Chemscore.ZeroCoef>
-5.4800

> <Gold.Chemscore.Hbond>
1.5855

> <Gold.Chemscore.Metal>
0.0000

> <Gold.Chemscore.Lipo>
118.6124

> <Gold.Chemscore.Internal_Hbond>
0.0000

> <Gold.Chemscore.DEClash>
0.2901

> <Gold.Chemscore.DEInternal>
1.0794

> <Gold.Chemscore.Rot>
2.8542

> <Gold.Chemscore.Internal.Correction>
   9.000000E+99

> <Gold.Chemscore.Hbonds>
donor molecule, donor type, donor heavy atom, donor atom, acceptor molecule, acceptor atom, score
      L1  H     9    26       P1  8028  0.99
      P1  H  7989  7998       L1     5  0.48

> <Gold.Chemscore.Hbond.Weighted>
-5.2957

> <Gold.Chemscore.Metal.Weighted>
-0.0000

> <Gold.Chemscore.Lipo.Weighted>
-13.8777

> <Gold.Chemscore.Internal_Hbond.Weighted>
0.0000

> <Gold.Chemscore.DEClash.Weighted>
0.2901

> <Gold.Chemscore.DEInternal.Weighted>
1.0794

> <Gold.Chemscore.Rot.Weighted>
7.3067

> <Gold.Chemscore.Internal.Correction.Weighted>
   9.000000E+99

> <Gold.Protein.RotatedTorsions>
[ 6907 6896 6895 6894 ] final  -59.19 input  -60.11 | X-H torsion
[ 7974 7965 7964 7962 ] final  125.74 input  175.53 | X-H torsion
[ 8008 7997 7996 7995 ] final -171.59 input   59.86 | X-H torsion
[ 10167 10162 10161 10158 ] final -113.75 input  -65.29 | X-H torsion
[ 10718 10713 10712 10709 ] final   72.31 input   66.30 | X-H torsion
[ 10763 10752 10751 10750 ] final   73.23 input  -60.55 | X-H torsion
[ 11005 11000 10999 10996 ] final  170.96 input  -57.11 | X-H torsion

> <Gold.Protein.ActiveResidues>
 VAL166  LYS551  ARG553  GLY616  TRP617  ASP618  TYR619  PRO620  LYS621  CYS622 
 ASP623  PHE694  ASN695  SER759  ASP760  ASP761  ALA762  ILE779  LEU786  VAL792 
 PHE793  MET794  SER795  GLU796  ALA797  LYS798  CYS799  TRP800  GLU811  SER814 

> <Gold.Protein.RotatedAtoms>
  150.7949  134.7001  159.6544 H   0  0  0  0  0  0  0  0  0  0  0  0  # atno 6907 bound_to 6896
  152.4060  134.6203  160.0059 H   0  0  0  0  0  0  0  0  0  0  0  0  # atno 6908 bound_to 6896
  151.6460  133.3286  159.3177 H   0  0  0  0  0  0  0  0  0  0  0  0  # atno 6909 bound_to 6896
  145.0695  139.3741  143.4964 H   0  0  0  0  0  0  0  0  0  0  0  0  # atno 7974 bound_to 7965
  155.9335  140.1095  157.1113 H   0  0  0  0  0  0  0  0  0  0  0  0  # atno 8008 bound_to 7997
  154.4075  140.1233  156.4900 H   0  0  0  0  0  0  0  0  0  0  0  0  # atno 8009 bound_to 7997
  155.7050  140.3471  155.4951 H   0  0  0  0  0  0  0  0  0  0  0  0  # atno 8010 bound_to 7997
  140.1085  143.4549  152.1768 H   0  0  0  0  0  0  0  0  0  0  0  0  # atno 10167 bound_to 10162
  157.6494  130.9572  150.0910 H   0  0  0  0  0  0  0  0  0  0  0  0  # atno 10718 bound_to 10713
  153.0508  135.5070  154.7863 H   0  0  0  0  0  0  0  0  0  0  0  0  # atno 10763 bound_to 10752
  154.6726  135.2955  154.9723 H   0  0  0  0  0  0  0  0  0  0  0  0  # atno 10764 bound_to 10752
  154.0536  135.6700  153.4856 H   0  0  0  0  0  0  0  0  0  0  0  0  # atno 10765 bound_to 10752
  140.3139  134.7493  157.4012 H   0  0  0  0  0  0  0  0  0  0  0  0  # atno 11005 bound_to 11000
  146.3528  140.0433  142.8641 LP  0  0  0  0  0  0  0  0  0  0  0  0  # atno 17320 bound_to 7965
  145.1309  140.9517  143.4545 LP  0  0  0  0  0  0  0  0  0  0  0  0  # atno 17321 bound_to 7965
  139.5632  144.7419  151.4095 LP  0  0  0  0  0  0  0  0  0  0  0  0  # atno 17342 bound_to 10162
  140.6939  143.7796  150.7296 LP  0  0  0  0  0  0  0  0  0  0  0  0  # atno 17343 bound_to 10162
  156.1859  130.3652  149.8973 LP  0  0  0  0  0  0  0  0  0  0  0  0  # atno 17370 bound_to 10713
  156.6913  130.8897  151.3588 LP  0  0  0  0  0  0  0  0  0  0  0  0  # atno 17371 bound_to 10713
  140.1000  134.5485  155.8361 LP  0  0  0  0  0  0  0  0  0  0  0  0  # atno 17394 bound_to 11000
  141.2102  133.6692  156.6492 LP  0  0  0  0  0  0  0  0  0  0  0  0  # atno 17395 bound_to 11000

$$$$
