AV-unprocessed.smi:3298|AV-procd|sdf|12647|dock9
  -GOLD-   2272018583D 1   1.00000     0.00000
 Structure written by MMmdl.
 36 37  0  0  0  0  0  0  0  0  2 V2000
  146.4281  142.9739  154.1216 C   0  0  0  0  0  0  0  0  0  0  0  0
  147.3862  141.8040  154.1987 C   0  0  0  0  0  0  0  0  0  0  0  0
  147.0613  140.5288  153.6886 C   0  0  0  0  0  0  0  0  0  0  0  0
  147.9932  139.4732  153.8000 C   0  0  0  0  0  0  0  0  0  0  0  0
  147.6264  138.2119  153.2572 N   0  0  0  0  0  0  0  0  0  0  0  0
  146.3964  137.6883  153.1171 C   0  0  0  0  0  0  0  0  0  0  0  0
  145.3448  138.2508  153.4221 O   0  0  0  0  0  0  0  0  0  0  0  0
  146.4492  136.4620  152.5785 N   0  0  0  0  0  0  0  0  0  0  0  0
  145.2893  135.6222  152.3016 C   0  0  1  0  0  0  0  0  0  0  0  0
  145.2602  135.2322  150.8480 C   0  0  0  0  0  0  0  0  0  0  0  0
  145.2745  133.9136  150.6675 C   0  0  0  0  0  0  0  0  0  0  0  0
  145.3284  133.1512  151.9660 C   0  0  1  0  0  0  0  0  0  0  0  0
  146.5151  132.1718  152.0435 C   0  0  0  0  0  0  0  0  0  0  0  0
  147.7539  132.8361  151.8881 O   0  0  0  0  0  0  0  0  0  0  0  0
  145.3446  134.2620  153.0474 C   0  0  0  0  0  0  0  0  0  0  0  0
  149.2483  139.7378  154.4043 C   0  0  0  0  0  0  0  0  0  0  0  0
  149.5180  141.0311  154.8956 C   0  0  0  0  0  0  0  0  0  0  0  0
  148.5894  142.0043  154.7797 N   0  3  0  0  0  0  0  0  0  0  0  0
  144.3683  136.1588  152.5358 H   0  0  0  0  0  0  0  0  0  0  0  0
  144.4007  132.5839  152.0497 H   0  0  0  0  0  0  0  0  0  0  0  0
  145.5585  142.7296  153.5107 H   0  0  0  0  0  0  0  0  0  0  0  0
  146.9191  143.8421  153.6808 H   0  0  0  0  0  0  0  0  0  0  0  0
  146.0798  143.2439  155.1188 H   0  0  0  0  0  0  0  0  0  0  0  0
  146.1015  140.3607  153.2216 H   0  0  0  0  0  0  0  0  0  0  0  0
  148.3856  137.6638  152.8801 H   0  0  0  0  0  0  0  0  0  0  0  0
  147.3538  136.0729  152.3560 H   0  0  0  0  0  0  0  0  0  0  0  0
  145.2193  135.9659  150.0564 H   0  0  0  0  0  0  0  0  0  0  0  0
  145.2500  133.4166  149.7090 H   0  0  0  0  0  0  0  0  0  0  0  0
  146.5120  131.6505  153.0010 H   0  0  0  0  0  0  0  0  0  0  0  0
  146.4277  131.4117  151.2667 H   0  0  0  0  0  0  0  0  0  0  0  0
  148.2329  132.4177  151.1892 H   0  0  0  0  0  0  0  0  0  0  0  0
  146.2287  134.1855  153.6820 H   0  0  0  0  0  0  0  0  0  0  0  0
  144.4831  134.1595  153.7083 H   0  0  0  0  0  0  0  0  0  0  0  0
  150.0121  138.9799  154.4894 H   0  0  0  0  0  0  0  0  0  0  0  0
  150.4463  141.3151  155.3693 H   0  0  0  0  0  0  0  0  0  0  0  0
  148.8079  142.9327  155.1423 H   0  0  0  0  0  0  0  0  0  0  0  0
  1  2  1  0  0  0  0
  1 21  1  0  0  0  0
  1 22  1  0  0  0  0
  1 23  1  0  0  0  0
  2 18  1  0  0  0  0
  2  3  2  0  0  0  0
  3  4  1  0  0  0  0
  3 24  1  0  0  0  0
  4  5  1  0  0  0  0
  4 16  2  0  0  0  0
  5  6  1  0  0  0  0
  5 25  1  0  0  0  0
  6  7  2  0  0  0  0
  6  8  1  0  0  0  0
  8  9  1  0  0  0  0
  8 26  1  0  0  0  0
  9 19  1  0  0  0  0
  9 15  1  0  0  0  0
  9 10  1  0  0  0  0
 10 11  2  0  0  0  0
 10 27  1  0  0  0  0
 11 12  1  0  0  0  0
 11 28  1  0  0  0  0
 12 20  1  0  0  0  0
 12 13  1  0  0  0  0
 12 15  1  0  0  0  0
 13 14  1  0  0  0  0
 13 29  1  0  0  0  0
 13 30  1  0  0  0  0
 14 31  1  0  0  0  0
 15 32  1  0  0  0  0
 15 33  1  0  0  0  0
 16 17  1  0  0  0  0
 16 34  1  0  0  0  0
 17 18  2  0  0  0  0
 17 35  1  0  0  0  0
 18 36  1  0  0  0  0
M  CHG  1  18   1
M  END
> <s_m_source_file>
AV-unprocessed.smi

> <i_m_source_file_index>
3298

> <i_lp_mmshare_version>
43012

> <i_f3d_flags>
0

> <s_epik_input>
W0NIM11jMVtjSF1jKFtjSF1bY0hdbjEpW05IXUMoPU8pW05IXVtDQEBIXTJbQ0hdPVtDSF1bQ0BASF0oW0NIMl0yKVtDSDJdW09IXQ==

> <s_epik_cmdline>
J2VwaWtfcHl0aG9uJywgJy1waCcsICc3LjAnLCAnLXRuJywgJzgnLCAnLW1hJywgJzIwMCcsICctbWV0YWxfYmluZGluZycsICctaW1hZScsICc8aW5maWxlLm1hZT4nLCAnLW9tYWUnLCAnPG91dGZpbGUubWFlPic=

> <r_epik_Ionization_Penalty>
0.443901

> <r_epik_Ionization_Penalty_Charging>
0.443881

> <r_epik_Ionization_Penalty_Neutral>
1.94967e-05

> <r_epik_State_Penalty>
0.446172

> <r_epik_Charging_Adjusted_Penalty>
0.890053

> <i_epik_Tot_Q>
1

> <i_epik_Tot_abs_Q>
1

> <r_epik_Metal_State_Penalty>
0.675842

> <b_epik_Metal_Only>
0

> <s_lp_Force_Field>
OPLS_2005

> <r_lp_Energy>
27.9023

> <b_lp_Chiralities_Consistent>
1

> <s_lp_Variant>
AV-unprocessed.smi:3298-8

> <Gold.Version>
5.8.1

> <Gold.Id.Protein>
6NUR|6NUR_protein|mol2

> <Gold.PLP.Fitness>
46.6231

> <Gold.PLP.PLP>
-31.9741

> <Gold.PLP.part.hbond>
-4.0000

> <Gold.PLP.part.metal>
0.0000

> <Gold.PLP.part.buried>
-4.0316

> <Gold.PLP.part.nonpolar>
-25.8216

> <Gold.PLP.part.repulsive>
1.8446

> <Gold.PLP.ligand.clash>
0.0000

> <Gold.PLP.ligand.torsion>
0.1698

> <Gold.PLP.Chemscore.Hbond>
4.9920

> <Gold.PLP.Chemscore.CHOScore>
0.0000

> <Gold.PLP.Chemscore.Metal>
0.0000

> <Gold.Chemscore.Hbonds>
donor molecule, donor type, donor heavy atom, donor atom, acceptor molecule, acceptor atom, score
      L1  H     5    25       P1  7948  0.99
      L1  H     8    26       P1  7948  1.00
      L1  H    14    31       P1 10747  1.00
      L1  H    18    36       P1  8028  2.00

> <Gold.PLP.Chemscore.Internal.Correction>
0.0127

> <Gold.Rescore>
     Score         DG    S(hbond)    S(metal)    S(lipo)     H(rot)  DE(clash)    DE(int)     intcor
     20.11     -22.01       3.91        0.00      69.06       1.81       0.41       1.49       ----

> <Gold.Chemscore.Fitness>
20.1145

> <Gold.Chemscore.DG>
-22.0065

> <Gold.Chemscore.ZeroCoef>
-5.4800

> <Gold.Chemscore.Hbond>
3.9131

> <Gold.Chemscore.Metal>
0.0000

> <Gold.Chemscore.Lipo>
69.0643

> <Gold.Chemscore.Internal_Hbond>
0.0000

> <Gold.Chemscore.DEClash>
0.4062

> <Gold.Chemscore.DEInternal>
1.4858

> <Gold.Chemscore.Rot>
1.8061

> <Gold.Chemscore.Internal.Correction>
   9.000000E+99

> <Gold.Chemscore.Hbonds>
donor molecule, donor type, donor heavy atom, donor atom, acceptor molecule, acceptor atom, score
      L1  H     5    25       P1  7948  0.94
      L1  H     8    26       P1  7948  0.96
      L1  H    14    31       P1 10747  0.97
      L1  H    18    36       P1  8028  1.00

> <Gold.Chemscore.Hbond.Weighted>
-13.0696

> <Gold.Chemscore.Metal.Weighted>
-0.0000

> <Gold.Chemscore.Lipo.Weighted>
-8.0805

> <Gold.Chemscore.Internal_Hbond.Weighted>
0.0000

> <Gold.Chemscore.DEClash.Weighted>
0.4062

> <Gold.Chemscore.DEInternal.Weighted>
1.4858

> <Gold.Chemscore.Rot.Weighted>
4.6237

> <Gold.Chemscore.Internal.Correction.Weighted>
   9.000000E+99

> <Gold.Protein.RotatedTorsions>
[ 6907 6896 6895 6894 ] final -154.17 input  -60.11 | X-H torsion
[ 7974 7965 7964 7962 ] final   83.73 input  175.53 | X-H torsion
[ 8008 7997 7996 7995 ] final  138.45 input   59.86 | X-H torsion
[ 10167 10162 10161 10158 ] final  -72.17 input  -65.29 | X-H torsion
[ 10718 10713 10712 10709 ] final  -21.61 input   66.30 | X-H torsion
[ 10763 10752 10751 10750 ] final   96.20 input  -60.55 | X-H torsion
[ 11005 11000 10999 10996 ] final   99.64 input  -57.11 | X-H torsion

> <Gold.Protein.ActiveResidues>
 VAL166  LYS551  ARG553  GLY616  TRP617  ASP618  TYR619  PRO620  LYS621  CYS622 
 ASP623  PHE694  ASN695  SER759  ASP760  ASP761  ALA762  ILE779  LEU786  VAL792 
 PHE793  MET794  SER795  GLU796  ALA797  LYS798  CYS799  TRP800  GLU811  SER814 

> <Gold.Protein.RotatedAtoms>
  151.2534  133.4338  159.2612 H   0  0  0  0  0  0  0  0  0  0  0  0  # atno 6907 bound_to 6896
  151.0596  134.9728  159.8264 H   0  0  0  0  0  0  0  0  0  0  0  0  # atno 6908 bound_to 6896
  152.5396  134.2485  159.8942 H   0  0  0  0  0  0  0  0  0  0  0  0  # atno 6909 bound_to 6896
  145.6081  139.2363  143.2208 H   0  0  0  0  0  0  0  0  0  0  0  0  # atno 7974 bound_to 7965
  156.2997  140.2393  156.4076 H   0  0  0  0  0  0  0  0  0  0  0  0  # atno 8008 bound_to 7997
  154.8470  140.0426  157.1599 H   0  0  0  0  0  0  0  0  0  0  0  0  # atno 8009 bound_to 7997
  154.9040  140.2981  155.5306 H   0  0  0  0  0  0  0  0  0  0  0  0  # atno 8010 bound_to 7997
  140.5214  143.2331  151.7424 H   0  0  0  0  0  0  0  0  0  0  0  0  # atno 10167 bound_to 10162
  156.5158  130.4621  149.6623 H   0  0  0  0  0  0  0  0  0  0  0  0  # atno 10718 bound_to 10713
  153.2621  135.4227  155.0904 H   0  0  0  0  0  0  0  0  0  0  0  0  # atno 10763 bound_to 10752
  154.8424  135.3451  154.6363 H   0  0  0  0  0  0  0  0  0  0  0  0  # atno 10764 bound_to 10752
  153.6783  135.7040  153.5183 H   0  0  0  0  0  0  0  0  0  0  0  0  # atno 10765 bound_to 10752
  139.8770  134.9104  156.4636 H   0  0  0  0  0  0  0  0  0  0  0  0  # atno 11005 bound_to 11000
  146.1525  140.6904  142.9315 LP  0  0  0  0  0  0  0  0  0  0  0  0  # atno 17320 bound_to 7965
  144.7281  140.4589  143.6958 LP  0  0  0  0  0  0  0  0  0  0  0  0  # atno 17321 bound_to 7965
  139.4924  144.4250  151.9936 LP  0  0  0  0  0  0  0  0  0  0  0  0  # atno 17342 bound_to 10162
  140.3346  144.3275  150.5980 LP  0  0  0  0  0  0  0  0  0  0  0  0  # atno 17343 bound_to 10162
  156.3196  130.7273  151.2183 LP  0  0  0  0  0  0  0  0  0  0  0  0  # atno 17370 bound_to 10713
  157.7444  131.0459  150.4867 LP  0  0  0  0  0  0  0  0  0  0  0  0  # atno 17371 bound_to 10713
  140.8846  133.7892  155.9504 LP  0  0  0  0  0  0  0  0  0  0  0  0  # atno 17394 bound_to 11000
  140.8818  134.2602  157.5140 LP  0  0  0  0  0  0  0  0  0  0  0  0  # atno 17395 bound_to 11000

$$$$
