AV-unprocessed.smi:1569|AV-procd|sdf|6311|dock6
  -GOLD-   22720 6513D 1   1.00000     0.00000
 Structure written by MMmdl.
 33 34  0  0  0  0  0  0  0  0  1 V2000
  153.0808  142.6822  160.7862 C   0  0  0  0  0  0  0  0  0  0  0  0
  152.0742  143.6382  160.2454 C   0  0  0  0  0  0  0  0  0  0  0  0
  150.9526  143.9723  160.8885 N   0  0  0  0  0  0  0  0  0  0  0  0
  150.1607  144.8656  160.1603 C   0  0  0  0  0  0  0  0  0  0  0  0
  148.8378  145.3165  160.7100 C   0  0  0  0  0  0  0  0  0  0  0  0
  147.7540  144.2195  160.6986 C   0  0  0  0  0  0  0  0  0  0  0  0
  147.2266  143.9759  159.3571 N   0  0  0  0  0  0  0  0  0  0  0  0
  146.3192  143.0395  159.0374 C   0  0  0  0  0  0  0  0  0  0  0  0
  145.7789  142.3112  159.8711 O   0  0  0  0  0  0  0  0  0  0  0  0
  145.9881  142.9069  157.5457 C   0  0  0  0  0  0  0  0  0  0  0  0
  145.1485  144.0031  157.0554 N   0  0  0  0  0  0  0  0  0  0  0  0
  144.7334  145.0362  157.9985 C   0  0  0  0  0  0  0  0  0  0  0  0
  144.0941  146.4148  157.0149 S   0  0  0  0  0  0  0  0  0  0  0  0
  143.9175  145.3949  155.5411 C   0  0  0  0  0  0  0  0  0  0  0  0
  144.7407  144.1410  155.7817 C   0  0  0  0  0  0  0  0  0  0  0  0
  144.9917  143.3543  154.8695 O   0  0  0  0  0  0  0  0  0  0  0  0
  150.7162  145.2234  158.9566 C   0  0  0  0  0  0  0  0  0  0  0  0
  152.2438  144.4319  158.6849 S   0  0  0  0  0  0  0  0  0  0  0  0
  152.9379  142.5394  161.8578 H   0  0  0  0  0  0  0  0  0  0  0  0
  154.0880  143.0628  160.6162 H   0  0  0  0  0  0  0  0  0  0  0  0
  152.9810  141.7180  160.2874 H   0  0  0  0  0  0  0  0  0  0  0  0
  148.9650  145.6809  161.7299 H   0  0  0  0  0  0  0  0  0  0  0  0
  148.4781  146.1720  160.1373 H   0  0  0  0  0  0  0  0  0  0  0  0
  148.1554  143.2991  161.1257 H   0  0  0  0  0  0  0  0  0  0  0  0
  146.9273  144.5147  161.3451 H   0  0  0  0  0  0  0  0  0  0  0  0
  147.6106  144.5355  158.6096 H   0  0  0  0  0  0  0  0  0  0  0  0
  146.9192  142.8490  156.9799 H   0  0  0  0  0  0  0  0  0  0  0  0
  145.4684  141.9627  157.3753 H   0  0  0  0  0  0  0  0  0  0  0  0
  143.9489  144.6499  158.6495 H   0  0  0  0  0  0  0  0  0  0  0  0
  145.5657  145.3698  158.6182 H   0  0  0  0  0  0  0  0  0  0  0  0
  142.8712  145.1253  155.3971 H   0  0  0  0  0  0  0  0  0  0  0  0
  144.2651  145.9330  154.6588 H   0  0  0  0  0  0  0  0  0  0  0  0
  150.3135  145.8909  158.2096 H   0  0  0  0  0  0  0  0  0  0  0  0
  1  2  1  0  0  0  0
  1 19  1  0  0  0  0
  1 20  1  0  0  0  0
  1 21  1  0  0  0  0
  2 18  1  0  0  0  0
  2  3  2  0  0  0  0
  3  4  1  0  0  0  0
  4  5  1  0  0  0  0
  4 17  2  0  0  0  0
  5  6  1  0  0  0  0
  5 22  1  0  0  0  0
  5 23  1  0  0  0  0
  6  7  1  0  0  0  0
  6 24  1  0  0  0  0
  6 25  1  0  0  0  0
  7  8  1  0  0  0  0
  7 26  1  0  0  0  0
  8  9  2  0  0  0  0
  8 10  1  0  0  0  0
 10 11  1  0  0  0  0
 10 27  1  0  0  0  0
 10 28  1  0  0  0  0
 11 15  1  0  0  0  0
 11 12  1  0  0  0  0
 12 13  1  0  0  0  0
 12 29  1  0  0  0  0
 12 30  1  0  0  0  0
 13 14  1  0  0  0  0
 14 15  1  0  0  0  0
 14 31  1  0  0  0  0
 14 32  1  0  0  0  0
 15 16  2  0  0  0  0
 17 18  1  0  0  0  0
 17 33  1  0  0  0  0
M  END
> <s_m_source_file>
AV-unprocessed.smi

> <i_m_source_file_index>
1569

> <i_lp_mmshare_version>
43012

> <i_f3d_flags>
0

> <s_epik_input>
W0NIM11jMW5jKFtjSF1zMSlbQ0gyXVtDSDJdW05IXUMoPU8pW0NIMl1OMltDSDJdU1tDSDJdQzI9Tw==

> <s_epik_cmdline>
J2VwaWtfcHl0aG9uJywgJy1waCcsICc3LjAnLCAnLXRuJywgJzgnLCAnLW1hJywgJzIwMCcsICctbWV0YWxfYmluZGluZycsICctaW1hZScsICc8aW5maWxlLm1hZT4nLCAnLW9tYWUnLCAnPG91dGZpbGUubWFlPic=

> <r_epik_Ionization_Penalty>
0.00098942

> <r_epik_Ionization_Penalty_Charging>
0

> <r_epik_Ionization_Penalty_Neutral>
0.00098942

> <r_epik_State_Penalty>
0.00064447

> <r_epik_Charging_Adjusted_Penalty>
0.00064447

> <i_epik_Tot_Q>
0

> <i_epik_Tot_abs_Q>
0

> <r_epik_Metal_State_Penalty>
-0

> <b_epik_Metal_Only>
0

> <s_epik_Chemistry_Notes>
This compound contains an acetal/aminal-like group ( X-CH(R)-Y where X, Y are N, S, or O) that may be acid/base labile, releasing an aldehyde.

> <s_lp_Force_Field>
OPLS_2005

> <r_lp_Energy>
2.37506

> <b_lp_Chiralities_Consistent>
1

> <s_lp_Variant>
AV-unprocessed.smi:1569-1

> <Gold.Version>
5.8.1

> <Gold.Id.Protein>
6NUR|6NUR_protein|mol2

> <Gold.PLP.Fitness>
42.3749

> <Gold.PLP.PLP>
-34.1526

> <Gold.PLP.part.hbond>
-2.6719

> <Gold.PLP.part.metal>
0.0000

> <Gold.PLP.part.buried>
-5.1902

> <Gold.PLP.part.nonpolar>
-27.3635

> <Gold.PLP.part.repulsive>
0.4315

> <Gold.PLP.ligand.clash>
0.0000

> <Gold.PLP.ligand.torsion>
0.3573

> <Gold.PLP.Chemscore.Hbond>
2.0000

> <Gold.PLP.Chemscore.CHOScore>
0.9739

> <Gold.PLP.Chemscore.Metal>
0.0000

> <Gold.Chemscore.Hbonds>
donor molecule, donor type, donor heavy atom, donor atom, acceptor molecule, acceptor atom, score
      L1  H     7    26       P1  8029  1.00
      P1  H  6934  6946       L1     9  1.00
      L1  C    17    33       P1  8029  0.90

> <Gold.PLP.Chemscore.Internal.Correction>
0.0150

> <Gold.Rescore>
     Score         DG    S(hbond)    S(metal)    S(lipo)     H(rot)  DE(clash)    DE(int)     intcor
     16.30     -16.83       1.99        0.00      82.21       1.92       0.08       0.45       ----

> <Gold.Chemscore.Fitness>
16.3020

> <Gold.Chemscore.DG>
-16.8264

> <Gold.Chemscore.ZeroCoef>
-5.4800

> <Gold.Chemscore.Hbond>
1.9899

> <Gold.Chemscore.Metal>
0.0000

> <Gold.Chemscore.Lipo>
82.2150

> <Gold.Chemscore.Internal_Hbond>
0.0000

> <Gold.Chemscore.DEClash>
0.0782

> <Gold.Chemscore.DEInternal>
0.4462

> <Gold.Chemscore.Rot>
1.9215

> <Gold.Chemscore.Internal.Correction>
   9.000000E+99

> <Gold.Chemscore.Hbonds>
donor molecule, donor type, donor heavy atom, donor atom, acceptor molecule, acceptor atom, score
      L1  H     7    26       P1  8029  0.95
      P1  H  6934  6946       L1     9  0.90

> <Gold.Chemscore.Hbond.Weighted>
-6.6463

> <Gold.Chemscore.Metal.Weighted>
-0.0000

> <Gold.Chemscore.Lipo.Weighted>
-9.6191

> <Gold.Chemscore.Internal_Hbond.Weighted>
0.0000

> <Gold.Chemscore.DEClash.Weighted>
0.0782

> <Gold.Chemscore.DEInternal.Weighted>
0.4462

> <Gold.Chemscore.Rot.Weighted>
4.9190

> <Gold.Chemscore.Internal.Correction.Weighted>
   9.000000E+99

> <Gold.Protein.RotatedTorsions>
[ 6907 6896 6895 6894 ] final   34.56 input  -60.11 | X-H torsion
[ 7974 7965 7964 7962 ] final -174.25 input  175.53 | X-H torsion
[ 8008 7997 7996 7995 ] final  146.57 input   59.86 | X-H torsion
[ 10167 10162 10161 10158 ] final  -44.53 input  -65.29 | X-H torsion
[ 10718 10713 10712 10709 ] final   71.39 input   66.30 | X-H torsion
[ 10763 10752 10751 10750 ] final  121.17 input  -60.55 | X-H torsion
[ 11005 11000 10999 10996 ] final   74.31 input  -57.11 | X-H torsion

> <Gold.Protein.ActiveResidues>
 VAL166  LYS551  ARG553  GLY616  TRP617  ASP618  TYR619  PRO620  LYS621  CYS622 
 ASP623  PHE694  ASN695  SER759  ASP760  ASP761  ALA762  ILE779  LEU786  VAL792 
 PHE793  MET794  SER795  GLU796  ALA797  LYS798  CYS799  TRP800  GLU811  SER814 

> <Gold.Protein.RotatedAtoms>
  152.1041  134.9321  160.0568 H   0  0  0  0  0  0  0  0  0  0  0  0  # atno 6907 bound_to 6896
  152.0524  133.4020  159.4391 H   0  0  0  0  0  0  0  0  0  0  0  0  # atno 6908 bound_to 6896
  150.6840  134.3213  159.4831 H   0  0  0  0  0  0  0  0  0  0  0  0  # atno 6909 bound_to 6896
  144.7133  140.1500  143.6385 H   0  0  0  0  0  0  0  0  0  0  0  0  # atno 7974 bound_to 7965
  156.2851  140.2179  156.5398 H   0  0  0  0  0  0  0  0  0  0  0  0  # atno 8008 bound_to 7997
  154.7379  140.0490  157.0807 H   0  0  0  0  0  0  0  0  0  0  0  0  # atno 8009 bound_to 7997
  155.0268  140.3130  155.4776 H   0  0  0  0  0  0  0  0  0  0  0  0  # atno 8010 bound_to 7997
  140.6893  143.2925  151.3509 H   0  0  0  0  0  0  0  0  0  0  0  0  # atno 10167 bound_to 10162
  157.6449  130.9526  150.0783 H   0  0  0  0  0  0  0  0  0  0  0  0  # atno 10718 bound_to 10713
  153.6098  135.3432  155.2975 H   0  0  0  0  0  0  0  0  0  0  0  0  # atno 10763 bound_to 10752
  154.8620  135.4247  154.2322 H   0  0  0  0  0  0  0  0  0  0  0  0  # atno 10764 bound_to 10752
  153.3170  135.7035  153.7137 H   0  0  0  0  0  0  0  0  0  0  0  0  # atno 10765 bound_to 10752
  139.9397  134.7422  156.1132 H   0  0  0  0  0  0  0  0  0  0  0  0  # atno 11005 bound_to 11000
  145.9125  139.2496  143.1429 LP  0  0  0  0  0  0  0  0  0  0  0  0  # atno 17320 bound_to 7965
  145.9702  140.8766  143.0166 LP  0  0  0  0  0  0  0  0  0  0  0  0  # atno 17321 bound_to 7965
  139.6280  144.0775  152.2452 LP  0  0  0  0  0  0  0  0  0  0  0  0  # atno 17342 bound_to 10162
  140.0241  144.6130  150.7542 LP  0  0  0  0  0  0  0  0  0  0  0  0  # atno 17343 bound_to 10162
  156.1767  130.3648  149.9091 LP  0  0  0  0  0  0  0  0  0  0  0  0  # atno 17370 bound_to 10713
  156.7053  130.8949  151.3604 LP  0  0  0  0  0  0  0  0  0  0  0  0  # atno 17371 bound_to 10713
  141.1026  133.6671  156.2790 LP  0  0  0  0  0  0  0  0  0  0  0  0  # atno 17394 bound_to 11000
  140.5983  134.5580  157.5513 LP  0  0  0  0  0  0  0  0  0  0  0  0  # atno 17395 bound_to 11000

$$$$
