AV-unprocessed.smi:1228|AV-procd|sdf|5149|dock8
  -GOLD-   22720 4223D 1   1.00000     0.00000
 Structure written by MMmdl.
 43 45  0  0  0  0  0  0  0  0  1 V2000
  149.0656  142.1932  147.0916 C   0  0  0  0  0  0  0  0  0  0  0  0
  149.1859  141.0238  148.0237 C   0  0  0  0  0  0  0  0  0  0  0  0
  148.9327  140.9893  149.4259 C   0  0  0  0  0  0  0  0  0  0  0  0
  149.1992  139.6866  149.7483 C   0  0  0  0  0  0  0  0  0  0  0  0
  149.1241  139.0722  150.9588 N   0  0  0  0  0  0  0  0  0  0  0  0
  149.1581  139.6229  152.1850 C   0  0  0  0  0  0  0  0  0  0  0  0
  149.2702  140.8252  152.4257 O   0  0  0  0  0  0  0  0  0  0  0  0
  149.0549  138.6855  153.1381 N   0  0  0  0  0  0  0  0  0  0  0  0
  149.0563  138.9424  154.5753 C   0  0  0  0  0  0  0  0  0  0  0  0
  148.0645  140.0630  154.9352 C   0  0  0  0  0  0  0  0  0  0  0  0
  148.1770  140.4456  156.4214 C   0  0  0  0  0  0  0  0  0  0  0  0
  149.5424  140.8692  156.7340 N   0  0  0  0  0  0  0  0  0  0  0  0
  149.6024  141.2634  158.1321 C   0  0  0  0  0  0  0  0  0  0  0  0
  149.4456  142.7326  158.4509 C   0  0  0  0  0  0  0  0  0  0  0  0
  150.7974  142.0734  158.5805 C   0  0  0  0  0  0  0  0  0  0  0  0
  150.4694  139.7587  156.5154 C   0  0  0  0  0  0  0  0  0  0  0  0
  150.4658  139.3503  155.0317 C   0  0  0  0  0  0  0  0  0  0  0  0
  149.5819  139.0157  148.6080 N   0  0  0  0  0  0  0  0  0  0  0  0
  149.9593  137.6257  148.4396 C   0  0  0  0  0  0  0  0  0  0  0  0
  149.5714  139.8468  147.5435 N   0  0  0  0  0  0  0  0  0  0  0  0
  148.7101  143.0802  147.6163 H   0  0  0  0  0  0  0  0  0  0  0  0
  148.3633  141.9824  146.2847 H   0  0  0  0  0  0  0  0  0  0  0  0
  150.0281  142.4375  146.6419 H   0  0  0  0  0  0  0  0  0  0  0  0
  148.6094  141.7960  150.0665 H   0  0  0  0  0  0  0  0  0  0  0  0
  149.0310  138.0677  150.9254 H   0  0  0  0  0  0  0  0  0  0  0  0
  148.9682  137.7218  152.8505 H   0  0  0  0  0  0  0  0  0  0  0  0
  148.7745  138.0313  155.1070 H   0  0  0  0  0  0  0  0  0  0  0  0
  148.2552  140.9435  154.3197 H   0  0  0  0  0  0  0  0  0  0  0  0
  147.0439  139.7476  154.7158 H   0  0  0  0  0  0  0  0  0  0  0  0
  147.4845  141.2597  156.6389 H   0  0  0  0  0  0  0  0  0  0  0  0
  147.8897  139.6031  157.0527 H   0  0  0  0  0  0  0  0  0  0  0  0
  149.1987  140.5825  158.8798 H   0  0  0  0  0  0  0  0  0  0  0  0
  149.3020  143.4227  157.6215 H   0  0  0  0  0  0  0  0  0  0  0  0
  148.9221  142.9926  159.3687 H   0  0  0  0  0  0  0  0  0  0  0  0
  151.1754  141.8948  159.5851 H   0  0  0  0  0  0  0  0  0  0  0  0
  151.5513  142.3261  157.8371 H   0  0  0  0  0  0  0  0  0  0  0  0
  151.4760  140.0617  156.8062 H   0  0  0  0  0  0  0  0  0  0  0  0
  150.1967  138.9092  157.1437 H   0  0  0  0  0  0  0  0  0  0  0  0
  151.1625  138.5261  154.8748 H   0  0  0  0  0  0  0  0  0  0  0  0
  150.8296  140.1831  154.4274 H   0  0  0  0  0  0  0  0  0  0  0  0
  150.7394  137.3673  149.1563 H   0  0  0  0  0  0  0  0  0  0  0  0
  150.3358  137.4496  147.4310 H   0  0  0  0  0  0  0  0  0  0  0  0
  149.0915  136.9884  148.6106 H   0  0  0  0  0  0  0  0  0  0  0  0
  1  2  1  0  0  0  0
  1 21  1  0  0  0  0
  1 22  1  0  0  0  0
  1 23  1  0  0  0  0
  2 20  2  0  0  0  0
  2  3  1  0  0  0  0
  3  4  2  0  0  0  0
  3 24  1  0  0  0  0
  4  5  1  0  0  0  0
  4 18  1  0  0  0  0
  5  6  1  0  0  0  0
  5 25  1  0  0  0  0
  6  7  2  0  0  0  0
  6  8  1  0  0  0  0
  8  9  1  0  0  0  0
  8 26  1  0  0  0  0
  9 17  1  0  0  0  0
  9 10  1  0  0  0  0
  9 27  1  0  0  0  0
 10 11  1  0  0  0  0
 10 28  1  0  0  0  0
 10 29  1  0  0  0  0
 11 12  1  0  0  0  0
 11 30  1  0  0  0  0
 11 31  1  0  0  0  0
 12 13  1  0  0  0  0
 12 16  1  0  0  0  0
 13 15  1  0  0  0  0
 13 14  1  0  0  0  0
 13 32  1  0  0  0  0
 14 15  1  0  0  0  0
 14 33  1  0  0  0  0
 14 34  1  0  0  0  0
 15 35  1  0  0  0  0
 15 36  1  0  0  0  0
 16 17  1  0  0  0  0
 16 37  1  0  0  0  0
 16 38  1  0  0  0  0
 17 39  1  0  0  0  0
 17 40  1  0  0  0  0
 18 19  1  0  0  0  0
 18 20  1  0  0  0  0
 19 41  1  0  0  0  0
 19 42  1  0  0  0  0
 19 43  1  0  0  0  0
M  END
> <s_m_source_file>
AV-unprocessed.smi

> <i_m_source_file_index>
1228

> <i_lp_mmshare_version>
43012

> <i_f3d_flags>
0

> <s_epik_input>
W0NIM11jMVtjSF1jKG4objEpW0NIM10pW05IXUMoPU8pW05IXVtDSF0yW0NIMl1bQ0gyXU4oW0NIMl1bQ0gyXTIpW0NIXTNbQ0gyXVtDSDJdMw==

> <s_epik_cmdline>
J2VwaWtfcHl0aG9uJywgJy1waCcsICc3LjAnLCAnLXRuJywgJzgnLCAnLW1hJywgJzIwMCcsICctbWV0YWxfYmluZGluZycsICctaW1hZScsICc8aW5maWxlLm1hZT4nLCAnLW9tYWUnLCAnPG91dGZpbGUubWFlPic=

> <r_lp_tautomer_probability>
1

> <r_epik_Ionization_Penalty>
1.01084

> <r_epik_Ionization_Penalty_Charging>
0

> <r_epik_Ionization_Penalty_Neutral>
1.01084

> <r_epik_State_Penalty>
1.06014

> <r_epik_Charging_Adjusted_Penalty>
1.06014

> <i_epik_Tot_Q>
0

> <i_epik_Tot_abs_Q>
0

> <r_epik_Metal_State_Penalty>
1.06013

> <b_epik_Metal_Only>
0

> <s_lp_Force_Field>
OPLS_2005

> <r_lp_Energy>
22.8061

> <b_lp_Chiralities_Consistent>
1

> <s_lp_Variant>
AV-unprocessed.smi:1228-3

> <Gold.Version>
5.8.1

> <Gold.Id.Protein>
6NUR|6NUR_protein|mol2

> <Gold.PLP.Fitness>
36.5738

> <Gold.PLP.PLP>
-31.7960

> <Gold.PLP.part.hbond>
-2.4056

> <Gold.PLP.part.metal>
0.0000

> <Gold.PLP.part.buried>
-3.9991

> <Gold.PLP.part.nonpolar>
-26.0384

> <Gold.PLP.part.repulsive>
0.1378

> <Gold.PLP.ligand.clash>
0.0000

> <Gold.PLP.ligand.torsion>
0.8200

> <Gold.PLP.Chemscore.Hbond>
1.7500

> <Gold.PLP.Chemscore.CHOScore>
0.0000

> <Gold.PLP.Chemscore.Metal>
0.0000

> <Gold.Chemscore.Hbonds>
donor molecule, donor type, donor heavy atom, donor atom, acceptor molecule, acceptor atom, score
      L1  H     5    25       P1  7948  0.75
      L1  H     8    26       P1  7948  1.00
      P1  H  8011  8017       L1     7  1.00

> <Gold.PLP.Chemscore.Internal.Correction>
1.1678

> <Gold.Rescore>
     Score         DG    S(hbond)    S(metal)    S(lipo)     H(rot)  DE(clash)    DE(int)     intcor
     13.79     -15.82       1.58        0.00      69.36       1.19       0.00       2.03       ----

> <Gold.Chemscore.Fitness>
13.7880

> <Gold.Chemscore.DG>
-15.8176

> <Gold.Chemscore.ZeroCoef>
-5.4800

> <Gold.Chemscore.Hbond>
1.5812

> <Gold.Chemscore.Metal>
0.0000

> <Gold.Chemscore.Lipo>
69.3584

> <Gold.Chemscore.Internal_Hbond>
0.0000

> <Gold.Chemscore.DEClash>
0.0039

> <Gold.Chemscore.DEInternal>
2.0258

> <Gold.Chemscore.Rot>
1.1948

> <Gold.Chemscore.Internal.Correction>
   9.000000E+99

> <Gold.Chemscore.Hbonds>
donor molecule, donor type, donor heavy atom, donor atom, acceptor molecule, acceptor atom, score
      L1  H     5    25       P1  7948  0.09
      L1  H     8    26       P1  7948  1.00
      P1  H  8011  8017       L1     7  1.00

> <Gold.Chemscore.Hbond.Weighted>
-5.2813

> <Gold.Chemscore.Metal.Weighted>
-0.0000

> <Gold.Chemscore.Lipo.Weighted>
-8.1149

> <Gold.Chemscore.Internal_Hbond.Weighted>
0.0000

> <Gold.Chemscore.DEClash.Weighted>
0.0039

> <Gold.Chemscore.DEInternal.Weighted>
2.0258

> <Gold.Chemscore.Rot.Weighted>
3.0587

> <Gold.Chemscore.Internal.Correction.Weighted>
   9.000000E+99

> <Gold.Protein.RotatedTorsions>
[ 6907 6896 6895 6894 ] final -138.51 input  -60.11 | X-H torsion
[ 7974 7965 7964 7962 ] final  -68.22 input  175.53 | X-H torsion
[ 8008 7997 7996 7995 ] final -142.50 input   59.86 | X-H torsion
[ 10167 10162 10161 10158 ] final   -1.97 input  -65.29 | X-H torsion
[ 10718 10713 10712 10709 ] final -103.96 input   66.30 | X-H torsion
[ 10763 10752 10751 10750 ] final  -16.08 input  -60.55 | X-H torsion
[ 11005 11000 10999 10996 ] final  104.46 input  -57.11 | X-H torsion

> <Gold.Protein.ActiveResidues>
 VAL166  LYS551  ARG553  GLY616  TRP617  ASP618  TYR619  PRO620  LYS621  CYS622 
 ASP623  PHE694  ASN695  SER759  ASP760  ASP761  ALA762  ILE779  LEU786  VAL792 
 PHE793  MET794  SER795  GLU796  ALA797  LYS798  CYS799  TRP800  GLU811  SER814 

> <Gold.Protein.RotatedAtoms>
  151.0359  133.5749  159.2655 H   0  0  0  0  0  0  0  0  0  0  0  0  # atno 6907 bound_to 6896
  151.2813  135.0714  159.9180 H   0  0  0  0  0  0  0  0  0  0  0  0  # atno 6908 bound_to 6896
  152.5354  134.0073  159.7976 H   0  0  0  0  0  0  0  0  0  0  0  0  # atno 6909 bound_to 6896
  145.7193  140.9045  143.0639 H   0  0  0  0  0  0  0  0  0  0  0  0  # atno 7974 bound_to 7965
  155.4953  140.0571  157.2947 H   0  0  0  0  0  0  0  0  0  0  0  0  # atno 8008 bound_to 7997
  154.4608  140.1995  156.0202 H   0  0  0  0  0  0  0  0  0  0  0  0  # atno 8009 bound_to 7997
  156.0885  140.3237  155.7790 H   0  0  0  0  0  0  0  0  0  0  0  0  # atno 8010 bound_to 7997
  140.6832  143.6712  150.8184 H   0  0  0  0  0  0  0  0  0  0  0  0  # atno 10167 bound_to 10162
  156.0285  130.5492  150.7327 H   0  0  0  0  0  0  0  0  0  0  0  0  # atno 10718 bound_to 10713
  153.5532  135.7011  153.5582 H   0  0  0  0  0  0  0  0  0  0  0  0  # atno 10763 bound_to 10752
  153.3496  135.3998  155.1636 H   0  0  0  0  0  0  0  0  0  0  0  0  # atno 10764 bound_to 10752
  154.8658  135.3762  154.5044 H   0  0  0  0  0  0  0  0  0  0  0  0  # atno 10765 bound_to 10752
  139.8792  134.9301  156.5365 H   0  0  0  0  0  0  0  0  0  0  0  0  # atno 11005 bound_to 11000
  144.6921  139.9180  143.7466 LP  0  0  0  0  0  0  0  0  0  0  0  0  # atno 17320 bound_to 7965
  146.0640  139.3632  143.0563 LP  0  0  0  0  0  0  0  0  0  0  0  0  # atno 17321 bound_to 7965
  140.0415  143.5341  152.2715 LP  0  0  0  0  0  0  0  0  0  0  0  0  # atno 17342 bound_to 10162
  139.6170  144.7621  151.2824 LP  0  0  0  0  0  0  0  0  0  0  0  0  # atno 17343 bound_to 10162
  157.4916  131.0911  151.0420 LP  0  0  0  0  0  0  0  0  0  0  0  0  # atno 17370 bound_to 10713
  157.0826  130.5909  149.5423 LP  0  0  0  0  0  0  0  0  0  0  0  0  # atno 17371 bound_to 10713
  140.8342  133.8255  155.9012 LP  0  0  0  0  0  0  0  0  0  0  0  0  # atno 17394 bound_to 11000
  140.9300  134.2034  157.4870 LP  0  0  0  0  0  0  0  0  0  0  0  0  # atno 17395 bound_to 11000

$$$$
