AV-unprocessed.smi:3004|AV-procd|sdf|11442|dock3
  -GOLD-   2272016373D 1   1.00000     0.00000
 Structure written by MMmdl.
 47 48  0  0  0  0  0  0  0  0  2 V2000
  153.7773  140.9628  160.4974 C   0  0  0  0  0  0  0  0  0  0  0  0
  152.9303  141.9653  159.7712 C   0  0  0  0  0  0  0  0  0  0  0  0
  152.7076  143.3323  160.0973 C   0  0  0  0  0  0  0  0  0  0  0  0
  151.8650  143.7801  159.1192 C   0  0  0  0  0  0  0  0  0  0  0  0
  151.2663  145.1320  158.9090 C   0  0  0  0  0  0  0  0  0  0  0  0
  151.6238  142.7091  158.2765 N   0  0  0  0  0  0  0  0  0  0  0  0
  150.8037  142.6508  157.0771 C   0  0  0  0  0  0  0  0  0  0  0  0
  150.4333  141.2078  156.7320 C   0  0  0  0  0  0  0  0  0  0  0  0
  150.2456  140.3878  157.6307 O   0  0  0  0  0  0  0  0  0  0  0  0
  150.3324  140.9089  155.4270 N   0  0  0  0  0  0  0  0  0  0  0  0
  149.9655  139.6021  154.8947 C   0  0  0  0  0  0  0  0  0  0  0  0
  148.6856  139.6723  154.0397 C   0  0  0  0  0  0  0  0  0  0  0  0
  148.1168  138.3185  153.7880 N   0  3  1  0  0  0  0  0  0  0  0  0
  148.1819  137.4839  155.0220 C   0  0  0  0  0  0  0  0  0  0  0  0
  147.7268  136.0409  154.7721 C   0  0  0  0  0  0  0  0  0  0  0  0
  146.3015  136.0266  154.2220 C   0  0  0  0  0  0  0  0  0  0  0  0
  146.2466  136.8711  152.9473 C   0  0  0  0  0  0  0  0  0  0  0  0
  146.7496  138.3162  153.1700 C   0  0  2  0  0  0  0  0  0  0  0  0
  146.7016  139.0488  151.8106 C   0  0  0  0  0  0  0  0  0  0  0  0
  152.2801  141.5987  158.6792 N   0  0  0  0  0  0  0  0  0  0  0  0
  154.1998  141.3899  161.4073 H   0  0  0  0  0  0  0  0  0  0  0  0
  154.6053  140.6238  159.8744 H   0  0  0  0  0  0  0  0  0  0  0  0
  153.1932  140.0876  160.7827 H   0  0  0  0  0  0  0  0  0  0  0  0
  153.1066  143.8994  160.9255 H   0  0  0  0  0  0  0  0  0  0  0  0
  151.5997  145.8289  159.6782 H   0  0  0  0  0  0  0  0  0  0  0  0
  150.1781  145.0857  158.9494 H   0  0  0  0  0  0  0  0  0  0  0  0
  151.5543  145.5400  157.9401 H   0  0  0  0  0  0  0  0  0  0  0  0
  149.9006  143.2455  157.2252 H   0  0  0  0  0  0  0  0  0  0  0  0
  151.3476  143.1058  156.2487 H   0  0  0  0  0  0  0  0  0  0  0  0
  150.4959  141.6490  154.7588 H   0  0  0  0  0  0  0  0  0  0  0  0
  150.7933  139.1990  154.3086 H   0  0  0  0  0  0  0  0  0  0  0  0
  149.8308  138.9303  155.7416 H   0  0  0  0  0  0  0  0  0  0  0  0
  147.9386  140.3091  154.5162 H   0  0  0  0  0  0  0  0  0  0  0  0
  148.9390  140.1764  153.1123 H   0  0  0  0  0  0  0  0  0  0  0  0
  149.1995  137.4651  155.4109 H   0  0  0  0  0  0  0  0  0  0  0  0
  147.5603  137.9341  155.7980 H   0  0  0  0  0  0  0  0  0  0  0  0
  148.4040  135.5528  154.0700 H   0  0  0  0  0  0  0  0  0  0  0  0
  147.7734  135.4684  155.6989 H   0  0  0  0  0  0  0  0  0  0  0  0
  145.9868  135.0038  154.0118 H   0  0  0  0  0  0  0  0  0  0  0  0
  145.6078  136.4239  154.9641 H   0  0  0  0  0  0  0  0  0  0  0  0
  146.8469  136.3885  152.1741 H   0  0  0  0  0  0  0  0  0  0  0  0
  145.2224  136.8858  152.5725 H   0  0  0  0  0  0  0  0  0  0  0  0
  146.0666  138.8160  153.8591 H   0  0  0  0  0  0  0  0  0  0  0  0
  145.7498  138.8716  151.3087 H   0  0  0  0  0  0  0  0  0  0  0  0
  147.4904  138.6998  151.1431 H   0  0  0  0  0  0  0  0  0  0  0  0
  146.7882  140.1302  151.9029 H   0  0  0  0  0  0  0  0  0  0  0  0
  148.7211  137.8810  153.1070 H   0  0  0  0  0  0  0  0  0  0  0  0
  1  2  1  0  0  0  0
  1 21  1  0  0  0  0
  1 22  1  0  0  0  0
  1 23  1  0  0  0  0
  2 20  2  0  0  0  0
  2  3  1  0  0  0  0
  3  4  2  0  0  0  0
  3 24  1  0  0  0  0
  4  5  1  0  0  0  0
  4  6  1  0  0  0  0
  5 25  1  0  0  0  0
  5 26  1  0  0  0  0
  5 27  1  0  0  0  0
  6  7  1  0  0  0  0
  6 20  1  0  0  0  0
  7  8  1  0  0  0  0
  7 28  1  0  0  0  0
  7 29  1  0  0  0  0
  8  9  2  0  0  0  0
  8 10  1  0  0  0  0
 10 11  1  0  0  0  0
 10 30  1  0  0  0  0
 11 12  1  0  0  0  0
 11 31  1  0  0  0  0
 11 32  1  0  0  0  0
 12 13  1  0  0  0  0
 12 33  1  0  0  0  0
 12 34  1  0  0  0  0
 13 18  1  0  0  0  0
 13 14  1  0  0  0  0
 13 47  1  0  0  0  0
 14 15  1  0  0  0  0
 14 35  1  0  0  0  0
 14 36  1  0  0  0  0
 15 16  1  0  0  0  0
 15 37  1  0  0  0  0
 15 38  1  0  0  0  0
 16 17  1  0  0  0  0
 16 39  1  0  0  0  0
 16 40  1  0  0  0  0
 17 18  1  0  0  0  0
 17 41  1  0  0  0  0
 17 42  1  0  0  0  0
 18 19  1  0  0  0  0
 18 43  1  0  0  0  0
 19 44  1  0  0  0  0
 19 45  1  0  0  0  0
 19 46  1  0  0  0  0
M  CHG  1  13   1
M  END
> <s_m_source_file>
AV-unprocessed.smi

> <i_m_source_file_index>
3004

> <i_lp_mmshare_version>
43012

> <i_f3d_flags>
0

> <s_epik_input>
W0NIM11jMVtjSF1jKFtDSDNdKW4objEpW0NIMl1DKD1PKVtOSF1bQ0gyXVtDSDJdTjJbQ0gyXVtDSDJdW0NIMl1bQ0gyXVtDQEhdMltDSDNd

> <s_epik_cmdline>
J2VwaWtfcHl0aG9uJywgJy1waCcsICc3LjAnLCAnLXRuJywgJzgnLCAnLW1hJywgJzIwMCcsICctbWV0YWxfYmluZGluZycsICctaW1hZScsICc8aW5maWxlLm1hZT4nLCAnLW9tYWUnLCAnPG91dGZpbGUubWFlPic=

> <r_lp_tautomer_probability>
1

> <r_epik_Ionization_Penalty>
0.00303644

> <r_epik_Ionization_Penalty_Charging>
0.00284254

> <r_epik_Ionization_Penalty_Neutral>
0.000193908

> <r_epik_State_Penalty>
-0

> <r_epik_Charging_Adjusted_Penalty>
0.00284254

> <i_epik_Tot_Q>
1

> <i_epik_Tot_abs_Q>
1

> <r_epik_Metal_State_Penalty>
-0

> <b_epik_Metal_Only>
0

> <s_lp_Force_Field>
OPLS_2005

> <r_lp_Energy>
17.2859

> <b_lp_Chiralities_Consistent>
1

> <s_lp_Variant>
AV-unprocessed.smi:3004-4

> <Gold.Version>
5.8.1

> <Gold.Id.Protein>
6NUR|6NUR_protein|mol2

> <Gold.PLP.Fitness>
41.9941

> <Gold.PLP.PLP>
-37.5415

> <Gold.PLP.part.hbond>
-1.0000

> <Gold.PLP.part.metal>
0.0000

> <Gold.PLP.part.buried>
-0.8298

> <Gold.PLP.part.nonpolar>
-35.9482

> <Gold.PLP.part.repulsive>
0.5324

> <Gold.PLP.ligand.clash>
0.0000

> <Gold.PLP.ligand.torsion>
0.7924

> <Gold.PLP.Chemscore.Hbond>
2.0000

> <Gold.PLP.Chemscore.CHOScore>
0.0000

> <Gold.PLP.Chemscore.Metal>
0.0000

> <Gold.Chemscore.Hbonds>
donor molecule, donor type, donor heavy atom, donor atom, acceptor molecule, acceptor atom, score
      L1  H    13    47       P1  7948  1.69

> <Gold.PLP.Chemscore.Internal.Correction>
0.0375

> <Gold.Rescore>
     Score         DG    S(hbond)    S(metal)    S(lipo)     H(rot)  DE(clash)    DE(int)     intcor
     13.54     -16.19       0.91        0.00     102.04       1.67       0.19       2.46       ----

> <Gold.Chemscore.Fitness>
13.5447

> <Gold.Chemscore.DG>
-16.1946

> <Gold.Chemscore.ZeroCoef>
-5.4800

> <Gold.Chemscore.Hbond>
0.9101

> <Gold.Chemscore.Metal>
0.0000

> <Gold.Chemscore.Lipo>
102.0416

> <Gold.Chemscore.Internal_Hbond>
0.0000

> <Gold.Chemscore.DEClash>
0.1887

> <Gold.Chemscore.DEInternal>
2.4612

> <Gold.Chemscore.Rot>
1.6657

> <Gold.Chemscore.Internal.Correction>
   9.000000E+99

> <Gold.Chemscore.Hbonds>
donor molecule, donor type, donor heavy atom, donor atom, acceptor molecule, acceptor atom, score
      L1  H    13    47       P1  7948  0.79

> <Gold.Chemscore.Hbond.Weighted>
-3.0398

> <Gold.Chemscore.Metal.Weighted>
-0.0000

> <Gold.Chemscore.Lipo.Weighted>
-11.9389

> <Gold.Chemscore.Internal_Hbond.Weighted>
0.0000

> <Gold.Chemscore.DEClash.Weighted>
0.1887

> <Gold.Chemscore.DEInternal.Weighted>
2.4612

> <Gold.Chemscore.Rot.Weighted>
4.2641

> <Gold.Chemscore.Internal.Correction.Weighted>
   9.000000E+99

> <Gold.Protein.RotatedTorsions>
[ 6907 6896 6895 6894 ] final   86.81 input  -60.11 | X-H torsion
[ 7974 7965 7964 7962 ] final   94.54 input  175.53 | X-H torsion
[ 8008 7997 7996 7995 ] final   -1.12 input   59.86 | X-H torsion
[ 10167 10162 10161 10158 ] final  100.63 input  -65.29 | X-H torsion
[ 10718 10713 10712 10709 ] final  -53.28 input   66.30 | X-H torsion
[ 10763 10752 10751 10750 ] final -121.10 input  -60.55 | X-H torsion
[ 11005 11000 10999 10996 ] final  158.73 input  -57.11 | X-H torsion

> <Gold.Protein.ActiveResidues>
 VAL166  LYS551  ARG553  GLY616  TRP617  ASP618  TYR619  PRO620  LYS621  CYS622 
 ASP623  PHE694  ASN695  SER759  ASP760  ASP761  ALA762  ILE779  LEU786  VAL792 
 PHE793  MET794  SER795  GLU796  ALA797  LYS798  CYS799  TRP800  GLU811  SER814 

> <Gold.Protein.RotatedAtoms>
  152.5401  134.2374  159.8848 H   0  0  0  0  0  0  0  0  0  0  0  0  # atno 6907 bound_to 6896
  151.2343  133.4427  159.2612 H   0  0  0  0  0  0  0  0  0  0  0  0  # atno 6908 bound_to 6896
  151.0686  134.9797  159.8353 H   0  0  0  0  0  0  0  0  0  0  0  0  # atno 6909 bound_to 6896
  145.4641  139.2285  143.2971 H   0  0  0  0  0  0  0  0  0  0  0  0  # atno 7974 bound_to 7965
  154.6504  140.2567  155.7220 H   0  0  0  0  0  0  0  0  0  0  0  0  # atno 8008 bound_to 7997
  156.2572  140.2869  156.0856 H   0  0  0  0  0  0  0  0  0  0  0  0  # atno 8009 bound_to 7997
  155.1460  140.0381  157.2800 H   0  0  0  0  0  0  0  0  0  0  0  0  # atno 8010 bound_to 7997
  139.7510  144.6984  151.0433 H   0  0  0  0  0  0  0  0  0  0  0  0  # atno 10167 bound_to 10162
  156.1548  130.4150  149.9886 H   0  0  0  0  0  0  0  0  0  0  0  0  # atno 10718 bound_to 10713
  154.8660  135.4180  154.2565 H   0  0  0  0  0  0  0  0  0  0  0  0  # atno 10763 bound_to 10752
  153.3502  135.6998  153.6801 H   0  0  0  0  0  0  0  0  0  0  0  0  # atno 10764 bound_to 10752
  153.5744  135.3585  155.2823 H   0  0  0  0  0  0  0  0  0  0  0  0  # atno 10765 bound_to 10752
  140.1893  134.8419  157.2893 H   0  0  0  0  0  0  0  0  0  0  0  0  # atno 11005 bound_to 11000
  146.2434  140.5413  142.8924 LP  0  0  0  0  0  0  0  0  0  0  0  0  # atno 17320 bound_to 7965
  144.7985  140.6168  143.6494 LP  0  0  0  0  0  0  0  0  0  0  0  0  # atno 17321 bound_to 7965
  140.7798  143.4809  151.0019 LP  0  0  0  0  0  0  0  0  0  0  0  0  # atno 17342 bound_to 10162
  139.8497  143.7454  152.3178 LP  0  0  0  0  0  0  0  0  0  0  0  0  # atno 17343 bound_to 10162
  156.7733  130.9194  151.3645 LP  0  0  0  0  0  0  0  0  0  0  0  0  # atno 17370 bound_to 10713
  157.6686  130.9030  149.9989 LP  0  0  0  0  0  0  0  0  0  0  0  0  # atno 17371 bound_to 10713
  140.2178  134.4060  155.7581 LP  0  0  0  0  0  0  0  0  0  0  0  0  # atno 17394 bound_to 11000
  141.2226  133.7150  156.8441 LP  0  0  0  0  0  0  0  0  0  0  0  0  # atno 17395 bound_to 11000

$$$$
