AV-unprocessed.smi:2531|AV-procd|sdf|9965|dock6
  -GOLD-   2272014 03D 1   1.00000     0.00000
 Structure written by MMmdl.
 47 49  0  0  0  0  0  0  0  0  2 V2000
  149.2572  142.4399  158.9686 O   0  0  0  0  0  0  0  0  0  0  0  0
  150.1525  142.1078  158.1906 C   0  0  0  0  0  0  0  0  0  0  0  0
  151.5759  142.6798  158.3350 C   0  0  0  0  0  0  0  0  0  0  0  0
  152.1296  142.5089  159.7637 C   0  0  0  0  0  0  0  0  0  0  0  0
  151.9436  143.8662  160.4398 C   0  0  0  0  0  0  0  0  0  0  0  0
  152.1857  144.8670  159.3140 C   0  0  0  0  0  0  0  0  0  0  0  0
  151.6177  144.1999  158.0555 C   0  0  0  0  0  0  0  0  0  0  0  0
  149.9027  141.2680  157.1026 N   0  0  0  0  0  0  0  0  0  0  0  0
  150.4692  141.5281  155.7876 C   0  0  0  0  0  0  0  0  0  0  0  0
  149.2138  140.8455  155.2278 C   0  0  0  0  0  0  0  0  0  0  0  0
  149.5041  139.0658  154.8042 S   0  0  0  0  0  0  0  0  0  0  0  0
  150.8780  138.9298  154.2963 O   0  0  0  0  0  0  0  0  0  0  0  0
  149.0413  138.2044  155.9030 O   0  0  0  0  0  0  0  0  0  0  0  0
  148.4270  138.8226  153.4763 N   0  0  0  0  0  0  0  0  0  0  0  0
  146.9864  138.9699  153.7017 C   0  0  0  0  0  0  0  0  0  0  0  0
  146.3842  137.7215  154.3713 C   0  0  0  0  0  0  0  0  0  0  0  0
  145.6277  136.8230  153.4095 C   0  0  0  0  0  0  0  0  0  0  0  0
  144.2298  136.6449  153.4932 C   0  0  0  0  0  0  0  0  0  0  0  0
  143.5920  135.7687  152.5906 C   0  0  0  0  0  0  0  0  0  0  0  0
  144.3637  135.0905  151.6243 C   0  0  0  0  0  0  0  0  0  0  0  0
  145.7563  135.3054  151.5852 C   0  0  0  0  0  0  0  0  0  0  0  0
  146.3305  136.1522  152.4675 N   0  3  0  0  0  0  0  0  0  0  0  0
  148.5540  141.0658  156.5959 C   0  0  0  0  0  0  0  0  0  0  0  0
  152.2394  142.1537  157.6471 H   0  0  0  0  0  0  0  0  0  0  0  0
  151.6523  141.7050  160.3264 H   0  0  0  0  0  0  0  0  0  0  0  0
  153.1928  142.2705  159.7125 H   0  0  0  0  0  0  0  0  0  0  0  0
  150.9209  143.9619  160.8073 H   0  0  0  0  0  0  0  0  0  0  0  0
  152.6178  144.0111  161.2842 H   0  0  0  0  0  0  0  0  0  0  0  0
  151.7334  145.8387  159.5138 H   0  0  0  0  0  0  0  0  0  0  0  0
  153.2587  145.0217  159.1920 H   0  0  0  0  0  0  0  0  0  0  0  0
  152.2320  144.4279  157.1838 H   0  0  0  0  0  0  0  0  0  0  0  0
  150.6226  144.5988  157.8502 H   0  0  0  0  0  0  0  0  0  0  0  0
  150.5239  142.5902  155.5407 H   0  0  0  0  0  0  0  0  0  0  0  0
  151.4067  141.0044  155.5976 H   0  0  0  0  0  0  0  0  0  0  0  0
  148.7535  141.3858  154.4004 H   0  0  0  0  0  0  0  0  0  0  0  0
  148.7264  139.3572  152.6605 H   0  0  0  0  0  0  0  0  0  0  0  0
  146.7933  139.8585  154.3043 H   0  0  0  0  0  0  0  0  0  0  0  0
  146.5046  139.1375  152.7383 H   0  0  0  0  0  0  0  0  0  0  0  0
  147.1815  137.1394  154.8349 H   0  0  0  0  0  0  0  0  0  0  0  0
  145.7186  138.0198  155.1828 H   0  0  0  0  0  0  0  0  0  0  0  0
  143.6537  137.1637  154.2455 H   0  0  0  0  0  0  0  0  0  0  0  0
  142.5238  135.6154  152.6417 H   0  0  0  0  0  0  0  0  0  0  0  0
  143.8939  134.4138  150.9255 H   0  0  0  0  0  0  0  0  0  0  0  0
  146.4236  134.8275  150.8830 H   0  0  0  0  0  0  0  0  0  0  0  0
  148.0438  140.1982  157.0148 H   0  0  0  0  0  0  0  0  0  0  0  0
  147.9377  141.9663  156.6293 H   0  0  0  0  0  0  0  0  0  0  0  0
  147.3407  136.2880  152.4269 H   0  0  0  0  0  0  0  0  0  0  0  0
  1  2  2  0  0  0  0
  2  3  1  0  0  0  0
  2  8  1  0  0  0  0
  3  7  1  0  0  0  0
  3  4  1  0  0  0  0
  3 24  1  0  0  0  0
  4  5  1  0  0  0  0
  4 25  1  0  0  0  0
  4 26  1  0  0  0  0
  5  6  1  0  0  0  0
  5 27  1  0  0  0  0
  5 28  1  0  0  0  0
  6  7  1  0  0  0  0
  6 29  1  0  0  0  0
  6 30  1  0  0  0  0
  7 31  1  0  0  0  0
  7 32  1  0  0  0  0
  8 23  1  0  0  0  0
  8  9  1  0  0  0  0
  9 10  1  0  0  0  0
  9 33  1  0  0  0  0
  9 34  1  0  0  0  0
 10 11  1  0  0  0  0
 10 23  1  0  0  0  0
 10 35  1  0  0  0  0
 11 12  2  0  0  0  0
 11 13  2  0  0  0  0
 11 14  1  0  0  0  0
 14 15  1  0  0  0  0
 14 36  1  0  0  0  0
 15 16  1  0  0  0  0
 15 37  1  0  0  0  0
 15 38  1  0  0  0  0
 16 17  1  0  0  0  0
 16 39  1  0  0  0  0
 16 40  1  0  0  0  0
 17 22  1  0  0  0  0
 17 18  2  0  0  0  0
 18 19  1  0  0  0  0
 18 41  1  0  0  0  0
 19 20  2  0  0  0  0
 19 42  1  0  0  0  0
 20 21  1  0  0  0  0
 20 43  1  0  0  0  0
 21 22  2  0  0  0  0
 21 44  1  0  0  0  0
 22 47  1  0  0  0  0
 23 45  1  0  0  0  0
 23 46  1  0  0  0  0
M  CHG  1  22   1
M  END
> <s_m_source_file>
AV-unprocessed.smi

> <i_m_source_file_index>
2531

> <i_lp_mmshare_version>
43012

> <i_f3d_flags>
0

> <s_epik_input>
W0NIMl0xW0NIMl1bQ0gyXVtDSDJdW0NIXTFDKD1PKU4yW0NIMl1bQ0hdKFtDSDJdMilTKD1PKSg9TylbTkhdW0NIMl1bQ0gyXWMzW2NIXVtjSF1bY0hdW2NIXW4z

> <s_epik_cmdline>
J2VwaWtfcHl0aG9uJywgJy1waCcsICc3LjAnLCAnLXRuJywgJzgnLCAnLW1hJywgJzIwMCcsICctbWV0YWxfYmluZGluZycsICctaW1hZScsICc8aW5maWxlLm1hZT4nLCAnLW9tYWUnLCAnPG91dGZpbGUubWFlPic=

> <r_epik_Ionization_Penalty>
2.00952

> <r_epik_Ionization_Penalty_Charging>
2.00945

> <r_epik_Ionization_Penalty_Neutral>
6.7549e-05

> <r_epik_State_Penalty>
2.13885

> <r_epik_Charging_Adjusted_Penalty>
4.1483

> <i_epik_Tot_Q>
1

> <i_epik_Tot_abs_Q>
1

> <r_epik_Metal_State_Penalty>
2.25125

> <b_epik_Metal_Only>
0

> <s_lp_Force_Field>
OPLS_2005

> <r_lp_Energy>
39.4399

> <b_lp_Chiralities_Consistent>
1

> <s_lp_Variant>
AV-unprocessed.smi:2531-2

> <Gold.Version>
5.8.1

> <Gold.Id.Protein>
6NUR|6NUR_protein|mol2

> <Gold.PLP.Fitness>
55.5919

> <Gold.PLP.PLP>
-45.2643

> <Gold.PLP.part.hbond>
-3.8758

> <Gold.PLP.part.metal>
0.0000

> <Gold.PLP.part.buried>
-5.9513

> <Gold.PLP.part.nonpolar>
-36.6561

> <Gold.PLP.part.repulsive>
0.4076

> <Gold.PLP.ligand.clash>
0.0000

> <Gold.PLP.ligand.torsion>
1.6780

> <Gold.PLP.Chemscore.Hbond>
4.0000

> <Gold.PLP.Chemscore.CHOScore>
0.0000

> <Gold.PLP.Chemscore.Metal>
0.0000

> <Gold.Chemscore.Hbonds>
donor molecule, donor type, donor heavy atom, donor atom, acceptor molecule, acceptor atom, score
      L1  H    14    36       P1  7957  1.00
      L1  H    22    47       P1  7948  2.00
      P1  H  7989  7998       L1    12  0.54

> <Gold.PLP.Chemscore.Internal.Correction>
1.6836

> <Gold.Rescore>
     Score         DG    S(hbond)    S(metal)    S(lipo)     H(rot)  DE(clash)    DE(int)     intcor
     20.27     -22.23       2.87        0.00     104.39       1.97       0.17       1.80       ----

> <Gold.Chemscore.Fitness>
20.2696

> <Gold.Chemscore.DG>
-22.2318

> <Gold.Chemscore.ZeroCoef>
-5.4800

> <Gold.Chemscore.Hbond>
2.8725

> <Gold.Chemscore.Metal>
0.0000

> <Gold.Chemscore.Lipo>
104.3872

> <Gold.Chemscore.Internal_Hbond>
0.0000

> <Gold.Chemscore.DEClash>
0.1669

> <Gold.Chemscore.DEInternal>
1.7954

> <Gold.Chemscore.Rot>
1.9749

> <Gold.Chemscore.Internal.Correction>
   9.000000E+99

> <Gold.Chemscore.Hbonds>
donor molecule, donor type, donor heavy atom, donor atom, acceptor molecule, acceptor atom, score
      L1  H    14    36       P1  7957  1.00
      L1  H    22    47       P1  7948  0.99
      P1  H  7989  7998       L1    12  0.43

> <Gold.Chemscore.Hbond.Weighted>
-9.5941

> <Gold.Chemscore.Metal.Weighted>
-0.0000

> <Gold.Chemscore.Lipo.Weighted>
-12.2133

> <Gold.Chemscore.Internal_Hbond.Weighted>
0.0000

> <Gold.Chemscore.DEClash.Weighted>
0.1669

> <Gold.Chemscore.DEInternal.Weighted>
1.7954

> <Gold.Chemscore.Rot.Weighted>
5.0556

> <Gold.Chemscore.Internal.Correction.Weighted>
   9.000000E+99

> <Gold.Protein.RotatedTorsions>
[ 6907 6896 6895 6894 ] final  -41.20 input  -60.11 | X-H torsion
[ 7974 7965 7964 7962 ] final   81.37 input  175.53 | X-H torsion
[ 8008 7997 7996 7995 ] final  139.27 input   59.86 | X-H torsion
[ 10167 10162 10161 10158 ] final -149.43 input  -65.29 | X-H torsion
[ 10718 10713 10712 10709 ] final  161.29 input   66.30 | X-H torsion
[ 10763 10752 10751 10750 ] final  148.35 input  -60.55 | X-H torsion
[ 11005 11000 10999 10996 ] final -179.18 input  -57.11 | X-H torsion

> <Gold.Protein.ActiveResidues>
 VAL166  LYS551  ARG553  GLY616  TRP617  ASP618  TYR619  PRO620  LYS621  CYS622 
 ASP623  PHE694  ASN695  SER759  ASP760  ASP761  ALA762  ILE779  LEU786  VAL792 
 PHE793  MET794  SER795  GLU796  ALA797  LYS798  CYS799  TRP800  GLU811  SER814 

> <Gold.Protein.RotatedAtoms>
  150.9695  134.9070  159.7778 H   0  0  0  0  0  0  0  0  0  0  0  0  # atno 6907 bound_to 6896
  152.5185  134.3561  159.9278 H   0  0  0  0  0  0  0  0  0  0  0  0  # atno 6908 bound_to 6896
  151.3570  133.3863  159.2720 H   0  0  0  0  0  0  0  0  0  0  0  0  # atno 6909 bound_to 6896
  145.6391  139.2421  143.2041 H   0  0  0  0  0  0  0  0  0  0  0  0  # atno 7974 bound_to 7965
  156.2991  140.2372  156.4209 H   0  0  0  0  0  0  0  0  0  0  0  0  # atno 8008 bound_to 7997
  154.8356  140.0431  157.1527 H   0  0  0  0  0  0  0  0  0  0  0  0  # atno 8009 bound_to 7997
  154.9160  140.2997  155.5245 H   0  0  0  0  0  0  0  0  0  0  0  0  # atno 8010 bound_to 7997
  139.7443  143.8615  152.2570 H   0  0  0  0  0  0  0  0  0  0  0  0  # atno 10167 bound_to 10162
  157.1386  131.0535  151.2337 H   0  0  0  0  0  0  0  0  0  0  0  0  # atno 10718 bound_to 10713
  154.0534  135.2880  155.3337 H   0  0  0  0  0  0  0  0  0  0  0  0  # atno 10763 bound_to 10752
  154.6855  135.5247  153.8323 H   0  0  0  0  0  0  0  0  0  0  0  0  # atno 10764 bound_to 10752
  153.0552  135.6592  154.0728 H   0  0  0  0  0  0  0  0  0  0  0  0  # atno 10765 bound_to 10752
  140.4215  134.6601  157.4666 H   0  0  0  0  0  0  0  0  0  0  0  0  # atno 11005 bound_to 11000
  146.1295  140.7204  142.9419 LP  0  0  0  0  0  0  0  0  0  0  0  0  # atno 17320 bound_to 7965
  144.7164  140.4224  143.7041 LP  0  0  0  0  0  0  0  0  0  0  0  0  # atno 17321 bound_to 7965
  139.8574  144.7134  150.9140 LP  0  0  0  0  0  0  0  0  0  0  0  0  # atno 17342 bound_to 10162
  140.7790  143.3846  151.1415 LP  0  0  0  0  0  0  0  0  0  0  0  0  # atno 17343 bound_to 10162
  157.4328  130.7500  149.7004 LP  0  0  0  0  0  0  0  0  0  0  0  0  # atno 17370 bound_to 10713
  155.9793  130.4041  150.3595 LP  0  0  0  0  0  0  0  0  0  0  0  0  # atno 17371 bound_to 10713
  140.0197  134.6566  155.9258 LP  0  0  0  0  0  0  0  0  0  0  0  0  # atno 17394 bound_to 11000
  141.1782  133.6543  156.4912 LP  0  0  0  0  0  0  0  0  0  0  0  0  # atno 17395 bound_to 11000

$$$$
