AV-unprocessed.smi:2183|AV-procd|sdf|8866|dock6
  -GOLD-   2272012 63D 1   1.00000     0.00000
 Structure written by MMmdl.
 40 42  0  0  0  0  0  0  0  0  1 V2000
  150.4224  140.3174  154.6058 O   0  0  0  0  0  0  0  0  0  0  0  0
  150.3909  139.7407  155.8960 C   0  0  0  0  0  0  0  0  0  0  0  0
  151.0028  140.6004  156.9661 C   0  0  0  0  0  0  0  0  0  0  0  0
  150.7328  141.9015  157.0995 N   0  0  0  0  0  0  0  0  0  0  0  0
  151.4932  142.2624  158.1940 C   0  0  0  0  0  0  0  0  0  0  0  0
  151.6399  143.5116  158.8388 C   0  0  0  0  0  0  0  0  0  0  0  0
  152.4847  143.6413  159.9604 C   0  0  0  0  0  0  0  0  0  0  0  0
  153.1944  142.5264  160.4515 C   0  0  0  0  0  0  0  0  0  0  0  0
  153.0630  141.2728  159.8233 C   0  0  0  0  0  0  0  0  0  0  0  0
  152.2172  141.1483  158.7046 C   0  0  0  0  0  0  0  0  0  0  0  0
  151.8702  140.0864  157.8742 N   0  0  0  0  0  0  0  0  0  0  0  0
  152.3481  138.7140  157.9814 C   0  0  0  0  0  0  0  0  0  0  0  0
  152.1561  138.1201  159.3924 C   0  0  1  0  0  0  0  0  0  0  0  0
  151.1117  137.1672  159.3816 O   0  0  0  0  0  0  0  0  0  0  0  0
  153.4270  137.4394  159.9212 C   0  0  0  0  0  0  0  0  0  0  0  0
  153.1515  136.8689  161.1939 O   0  0  0  0  0  0  0  0  0  0  0  0
  153.8186  137.3690  162.2915 C   0  0  0  0  0  0  0  0  0  0  0  0
  153.6062  136.7140  163.5223 C   0  0  0  0  0  0  0  0  0  0  0  0
  154.2491  137.1554  164.6948 C   0  0  0  0  0  0  0  0  0  0  0  0
  155.1167  138.2623  164.6470 C   0  0  0  0  0  0  0  0  0  0  0  0
  155.9089  138.8035  166.0811 Cl  0  0  0  0  0  0  0  0  0  0  0  0
  155.3370  138.9264  163.4260 C   0  0  0  0  0  0  0  0  0  0  0  0
  154.6930  138.4850  162.2536 C   0  0  0  0  0  0  0  0  0  0  0  0
  149.8184  141.0434  154.5860 H   0  0  0  0  0  0  0  0  0  0  0  0
  149.3525  139.5342  156.1562 H   0  0  0  0  0  0  0  0  0  0  0  0
  150.9145  138.7862  155.8552 H   0  0  0  0  0  0  0  0  0  0  0  0
  151.1011  144.3716  158.4694 H   0  0  0  0  0  0  0  0  0  0  0  0
  152.5891  144.6008  160.4458 H   0  0  0  0  0  0  0  0  0  0  0  0
  153.8403  142.6342  161.3106 H   0  0  0  0  0  0  0  0  0  0  0  0
  153.6067  140.4182  160.1967 H   0  0  0  0  0  0  0  0  0  0  0  0
  151.8243  138.1071  157.2420 H   0  0  0  0  0  0  0  0  0  0  0  0
  153.3999  138.6859  157.6964 H   0  0  0  0  0  0  0  0  0  0  0  0
  151.8658  138.9078  160.0875 H   0  0  0  0  0  0  0  0  0  0  0  0
  150.3360  137.5739  159.0271 H   0  0  0  0  0  0  0  0  0  0  0  0
  153.7321  136.6518  159.2299 H   0  0  0  0  0  0  0  0  0  0  0  0
  154.2404  138.1640  159.9905 H   0  0  0  0  0  0  0  0  0  0  0  0
  152.9427  135.8628  163.5685 H   0  0  0  0  0  0  0  0  0  0  0  0
  154.0764  136.6427  165.6296 H   0  0  0  0  0  0  0  0  0  0  0  0
  156.0024  139.7764  163.3856 H   0  0  0  0  0  0  0  0  0  0  0  0
  154.8891  139.0197  161.3368 H   0  0  0  0  0  0  0  0  0  0  0  0
  1  2  1  0  0  0  0
  1 24  1  0  0  0  0
  2  3  1  0  0  0  0
  2 25  1  0  0  0  0
  2 26  1  0  0  0  0
  3 11  1  0  0  0  0
  3  4  2  0  0  0  0
  4  5  1  0  0  0  0
  5 10  2  0  0  0  0
  5  6  1  0  0  0  0
  6  7  2  0  0  0  0
  6 27  1  0  0  0  0
  7  8  1  0  0  0  0
  7 28  1  0  0  0  0
  8  9  2  0  0  0  0
  8 29  1  0  0  0  0
  9 10  1  0  0  0  0
  9 30  1  0  0  0  0
 10 11  1  0  0  0  0
 11 12  1  0  0  0  0
 12 13  1  0  0  0  0
 12 31  1  0  0  0  0
 12 32  1  0  0  0  0
 13 14  1  0  0  0  0
 13 15  1  0  0  0  0
 13 33  1  0  0  0  0
 14 34  1  0  0  0  0
 15 16  1  0  0  0  0
 15 35  1  0  0  0  0
 15 36  1  0  0  0  0
 16 17  1  0  0  0  0
 17 23  1  0  0  0  0
 17 18  2  0  0  0  0
 18 19  1  0  0  0  0
 18 37  1  0  0  0  0
 19 20  2  0  0  0  0
 19 38  1  0  0  0  0
 20 21  1  0  0  0  0
 20 22  1  0  0  0  0
 22 23  2  0  0  0  0
 22 39  1  0  0  0  0
 23 40  1  0  0  0  0
M  END
> <s_m_source_file>
AV-unprocessed.smi

> <i_m_source_file_index>
2183

> <i_lp_mmshare_version>
43012

> <i_f3d_flags>
0

> <s_epik_input>
W2NIXTFbY0hdW2NIXVtjSF1jKGMxMiluKGMobjIpW0NIMl1bT0hdKVtDSDJdW0NASF0oW09IXSlbQ0gyXU9jM1tjSF1bY0hdYyhDbClbY0hdW2NIXTM=

> <s_epik_cmdline>
J2VwaWtfcHl0aG9uJywgJy1waCcsICc3LjAnLCAnLXRuJywgJzgnLCAnLW1hJywgJzIwMCcsICctbWV0YWxfYmluZGluZycsICctaW1hZScsICc8aW5maWxlLm1hZT4nLCAnLW9tYWUnLCAnPG91dGZpbGUubWFlPic=

> <r_lp_tautomer_probability>
1

> <r_epik_Ionization_Penalty>
0.0586933

> <r_epik_Ionization_Penalty_Charging>
0

> <r_epik_Ionization_Penalty_Neutral>
0.0586933

> <r_epik_State_Penalty>
0.0507031

> <r_epik_Charging_Adjusted_Penalty>
0.0507031

> <i_epik_Tot_Q>
0

> <i_epik_Tot_abs_Q>
0

> <r_epik_Metal_State_Penalty>
5.29335e-05

> <b_epik_Metal_Only>
0

> <s_lp_Force_Field>
OPLS_2005

> <r_lp_Energy>
14.4391

> <b_lp_Chiralities_Consistent>
1

> <s_lp_Variant>
AV-unprocessed.smi:2183-2

> <Gold.Version>
5.8.1

> <Gold.Id.Protein>
6NUR|6NUR_protein|mol2

> <Gold.PLP.Fitness>
51.1814

> <Gold.PLP.PLP>
-47.6363

> <Gold.PLP.part.hbond>
-2.0000

> <Gold.PLP.part.metal>
0.0000

> <Gold.PLP.part.buried>
-7.1108

> <Gold.PLP.part.nonpolar>
-39.2624

> <Gold.PLP.part.repulsive>
0.0659

> <Gold.PLP.ligand.clash>
0.0000

> <Gold.PLP.ligand.torsion>
1.2856

> <Gold.PLP.Chemscore.Hbond>
2.0000

> <Gold.PLP.Chemscore.CHOScore>
0.0000

> <Gold.PLP.Chemscore.Metal>
0.0000

> <Gold.Chemscore.Hbonds>
donor molecule, donor type, donor heavy atom, donor atom, acceptor molecule, acceptor atom, score
      P1  H  6896  6909       L1    14  0.80
      P1  H  7989  7998       L1     1  1.00

> <Gold.PLP.Chemscore.Internal.Correction>
0.1163

> <Gold.Rescore>
     Score         DG    S(hbond)    S(metal)    S(lipo)     H(rot)  DE(clash)    DE(int)     intcor
     17.22     -18.79       1.81        0.00     128.47       3.04       0.16       1.41       ----

> <Gold.Chemscore.Fitness>
17.2176

> <Gold.Chemscore.DG>
-18.7931

> <Gold.Chemscore.ZeroCoef>
-5.4800

> <Gold.Chemscore.Hbond>
1.8126

> <Gold.Chemscore.Metal>
0.0000

> <Gold.Chemscore.Lipo>
128.4656

> <Gold.Chemscore.Internal_Hbond>
0.0000

> <Gold.Chemscore.DEClash>
0.1643

> <Gold.Chemscore.DEInternal>
1.4112

> <Gold.Chemscore.Rot>
3.0358

> <Gold.Chemscore.Internal.Correction>
   9.000000E+99

> <Gold.Chemscore.Hbonds>
donor molecule, donor type, donor heavy atom, donor atom, acceptor molecule, acceptor atom, score
      P1  H  6896  6909       L1    14  0.77
      P1  H  7989  7998       L1     1  0.25

> <Gold.Chemscore.Hbond.Weighted>
-6.0542

> <Gold.Chemscore.Metal.Weighted>
-0.0000

> <Gold.Chemscore.Lipo.Weighted>
-15.0305

> <Gold.Chemscore.Internal_Hbond.Weighted>
0.0000

> <Gold.Chemscore.DEClash.Weighted>
0.1643

> <Gold.Chemscore.DEInternal.Weighted>
1.4112

> <Gold.Chemscore.Rot.Weighted>
7.7716

> <Gold.Chemscore.Internal.Correction.Weighted>
   9.000000E+99

> <Gold.Protein.RotatedTorsions>
[ 6907 6896 6895 6894 ] final  114.96 input  -60.11 | X-H torsion
[ 7974 7965 7964 7962 ] final -145.95 input  175.53 | X-H torsion
[ 8008 7997 7996 7995 ] final  -58.38 input   59.86 | X-H torsion
[ 10167 10162 10161 10158 ] final   17.92 input  -65.29 | X-H torsion
[ 10718 10713 10712 10709 ] final -157.49 input   66.30 | X-H torsion
[ 10763 10752 10751 10750 ] final  -44.78 input  -60.55 | X-H torsion
[ 11005 11000 10999 10996 ] final -122.85 input  -57.11 | X-H torsion

> <Gold.Protein.ActiveResidues>
 VAL166  LYS551  ARG553  GLY616  TRP617  ASP618  TYR619  PRO620  LYS621  CYS622 
 ASP623  PHE694  ASN695  SER759  ASP760  ASP761  ALA762  ILE779  LEU786  VAL792 
 PHE793  MET794  SER795  GLU796  ALA797  LYS798  CYS799  TRP800  GLU811  SER814 

> <Gold.Protein.RotatedAtoms>
  152.4771  133.8164  159.7030 H   0  0  0  0  0  0  0  0  0  0  0  0  # atno 6907 bound_to 6896
  150.8795  133.7382  159.2943 H   0  0  0  0  0  0  0  0  0  0  0  0  # atno 6908 bound_to 6896
  151.4891  135.1060  159.9851 H   0  0  0  0  0  0  0  0  0  0  0  0  # atno 6909 bound_to 6896
  144.8192  140.5518  143.5590 H   0  0  0  0  0  0  0  0  0  0  0  0  # atno 7974 bound_to 7965
  154.4306  140.1085  156.5948 H   0  0  0  0  0  0  0  0  0  0  0  0  # atno 8008 bound_to 7997
  155.5974  140.3493  155.4565 H   0  0  0  0  0  0  0  0  0  0  0  0  # atno 8009 bound_to 7997
  156.0200  140.1237  157.0357 H   0  0  0  0  0  0  0  0  0  0  0  0  # atno 8010 bound_to 7997
  140.5691  143.9195  150.6699 H   0  0  0  0  0  0  0  0  0  0  0  0  # atno 10167 bound_to 10162
  156.5410  130.8563  151.2749 H   0  0  0  0  0  0  0  0  0  0  0  0  # atno 10718 bound_to 10713
  154.0176  135.6673  153.4770 H   0  0  0  0  0  0  0  0  0  0  0  0  # atno 10763 bound_to 10752
  153.0594  135.5037  154.8053 H   0  0  0  0  0  0  0  0  0  0  0  0  # atno 10764 bound_to 10752
  154.6957  135.3069  154.9379 H   0  0  0  0  0  0  0  0  0  0  0  0  # atno 10765 bound_to 10752
  140.9963  134.0466  157.3593 H   0  0  0  0  0  0  0  0  0  0  0  0  # atno 11005 bound_to 11000
  145.5144  139.1478  143.3587 LP  0  0  0  0  0  0  0  0  0  0  0  0  # atno 17320 bound_to 7965
  146.2497  140.5285  142.8899 LP  0  0  0  0  0  0  0  0  0  0  0  0  # atno 17321 bound_to 7965
  140.2666  143.3486  152.1276 LP  0  0  0  0  0  0  0  0  0  0  0  0  # atno 17342 bound_to 10162
  139.5108  144.6890  151.5810 LP  0  0  0  0  0  0  0  0  0  0  0  0  # atno 17343 bound_to 10162
  157.7405  130.9852  150.2383 LP  0  0  0  0  0  0  0  0  0  0  0  0  # atno 17370 bound_to 10713
  156.2971  130.3753  149.7785 LP  0  0  0  0  0  0  0  0  0  0  0  0  # atno 17371 bound_to 10713
  139.9016  135.0166  156.7297 LP  0  0  0  0  0  0  0  0  0  0  0  0  # atno 17394 bound_to 11000
  140.6960  133.9348  155.7995 LP  0  0  0  0  0  0  0  0  0  0  0  0  # atno 17395 bound_to 11000

$$$$
