AV-unprocessed.smi:199|AV-procd|sdf|1569|dock3
  -GOLD-   2262019443D 1   1.00000     0.00000
 Structure written by MMmdl.
 51 55  0  0  0  0  0  0  0  0  1 V2000
  152.9296  132.6327  156.9660 C   0  0  0  0  0  0  0  0  0  0  0  0
  151.7312  132.2296  156.0916 C   0  0  1  0  0  0  0  0  0  0  0  0
  151.8059  130.8547  155.7439 O   0  0  0  0  0  0  0  0  0  0  0  0
  150.5198  130.4713  155.2924 C   0  0  0  0  0  0  0  0  0  0  0  0
  149.5957  131.1180  156.3173 C   0  0  0  0  0  0  0  0  0  0  0  0
  150.3162  132.4143  156.7016 C   0  0  1  0  0  0  0  0  0  0  0  0
  150.3600  132.4898  158.1173 O   0  0  0  0  0  0  0  0  0  0  0  0
  149.5803  133.6703  156.1724 C   0  0  0  0  0  0  0  0  0  0  0  0
  148.9435  133.4674  154.8797 N   0  0  0  0  0  0  0  0  0  0  0  0
  149.5422  133.0111  153.7279 C   0  0  0  0  0  0  0  0  0  0  0  0
  148.7510  132.9001  152.6970 N   0  0  0  0  0  0  0  0  0  0  0  0
  147.5132  133.3281  153.1636 C   0  0  0  0  0  0  0  0  0  0  0  0
  146.2189  133.4624  152.5816 C   0  0  0  0  0  0  0  0  0  0  0  0
  145.9351  133.1526  151.2866 N   0  0  0  0  0  0  0  0  0  0  0  0
  146.0560  131.7848  150.7980 C   0  0  1  0  0  0  0  0  0  0  0  0
  144.8295  131.0619  151.3936 C   0  0  0  0  0  0  0  0  0  0  0  0
  143.7903  132.1926  151.3977 C   0  0  0  0  0  0  0  0  0  0  0  0
  144.5930  133.3468  150.7581 C   0  0  2  0  0  0  0  0  0  0  0  0
  144.8300  133.1142  149.2474 C   0  0  2  0  0  0  0  0  0  0  0  0
  143.5920  132.8659  148.3653 C   0  0  0  0  0  0  0  0  0  0  0  0
  143.2119  134.0562  147.7083 O   0  0  0  0  0  0  0  0  0  0  0  0
  145.8399  131.9526  149.2836 C   0  0  0  0  0  0  0  0  0  0  0  0
  145.2163  133.8975  153.3908 N   0  0  0  0  0  0  0  0  0  0  0  0
  145.4599  134.2083  154.6665 C   0  0  0  0  0  0  0  0  0  0  0  0
  146.6126  134.1470  155.3338 N   0  0  0  0  0  0  0  0  0  0  0  0
  147.6205  133.6894  154.5376 C   0  0  0  0  0  0  0  0  0  0  0  0
  152.8738  133.6834  157.2515 H   0  0  0  0  0  0  0  0  0  0  0  0
  153.8656  132.4874  156.4269 H   0  0  0  0  0  0  0  0  0  0  0  0
  152.9804  132.0363  157.8771 H   0  0  0  0  0  0  0  0  0  0  0  0
  151.7919  132.7773  155.1507 H   0  0  0  0  0  0  0  0  0  0  0  0
  150.3433  130.8746  154.2938 H   0  0  0  0  0  0  0  0  0  0  0  0
  150.4122  129.3873  155.2520 H   0  0  0  0  0  0  0  0  0  0  0  0
  148.5912  131.2776  155.9236 H   0  0  0  0  0  0  0  0  0  0  0  0
  149.5045  130.4504  157.1759 H   0  0  0  0  0  0  0  0  0  0  0  0
  149.8042  131.8126  158.4713 H   0  0  0  0  0  0  0  0  0  0  0  0
  148.8155  133.9815  156.8853 H   0  0  0  0  0  0  0  0  0  0  0  0
  150.2717  134.5096  156.0847 H   0  0  0  0  0  0  0  0  0  0  0  0
  150.5892  132.7504  153.6780 H   0  0  0  0  0  0  0  0  0  0  0  0
  147.0025  131.2953  151.0310 H   0  0  0  0  0  0  0  0  0  0  0  0
  144.5177  130.2024  150.7993 H   0  0  0  0  0  0  0  0  0  0  0  0
  145.0250  130.7155  152.4090 H   0  0  0  0  0  0  0  0  0  0  0  0
  142.8744  131.9408  150.8658 H   0  0  0  0  0  0  0  0  0  0  0  0
  143.5108  132.4445  152.4217 H   0  0  0  0  0  0  0  0  0  0  0  0
  144.1544  134.3243  150.9495 H   0  0  0  0  0  0  0  0  0  0  0  0
  145.3451  133.9934  148.8550 H   0  0  0  0  0  0  0  0  0  0  0  0
  143.8234  132.1159  147.6086 H   0  0  0  0  0  0  0  0  0  0  0  0
  142.7507  132.4777  148.9382 H   0  0  0  0  0  0  0  0  0  0  0  0
  143.9888  134.5659  147.5364 H   0  0  0  0  0  0  0  0  0  0  0  0
  146.7668  132.2376  148.7842 H   0  0  0  0  0  0  0  0  0  0  0  0
  145.4713  131.0405  148.8123 H   0  0  0  0  0  0  0  0  0  0  0  0
  144.6085  134.5538  155.2338 H   0  0  0  0  0  0  0  0  0  0  0  0
  1  2  1  0  0  0  0
  1 27  1  0  0  0  0
  1 28  1  0  0  0  0
  1 29  1  0  0  0  0
  2  6  1  0  0  0  0
  2  3  1  0  0  0  0
  2 30  1  0  0  0  0
  3  4  1  0  0  0  0
  4  5  1  0  0  0  0
  4 31  1  0  0  0  0
  4 32  1  0  0  0  0
  5  6  1  0  0  0  0
  5 33  1  0  0  0  0
  5 34  1  0  0  0  0
  6  7  1  0  0  0  0
  6  8  1  0  0  0  0
  7 35  1  0  0  0  0
  8  9  1  0  0  0  0
  8 36  1  0  0  0  0
  8 37  1  0  0  0  0
  9 26  1  0  0  0  0
  9 10  1  0  0  0  0
 10 11  2  0  0  0  0
 10 38  1  0  0  0  0
 11 12  1  0  0  0  0
 12 26  2  0  0  0  0
 12 13  1  0  0  0  0
 13 14  1  0  0  0  0
 13 23  2  0  0  0  0
 14 18  1  0  0  0  0
 14 15  1  0  0  0  0
 15 22  1  0  0  0  0
 15 16  1  0  0  0  0
 15 39  1  0  0  0  0
 16 17  1  0  0  0  0
 16 40  1  0  0  0  0
 16 41  1  0  0  0  0
 17 18  1  0  0  0  0
 17 42  1  0  0  0  0
 17 43  1  0  0  0  0
 18 19  1  0  0  0  0
 18 44  1  0  0  0  0
 19 20  1  0  0  0  0
 19 22  1  0  0  0  0
 19 45  1  0  0  0  0
 20 21  1  0  0  0  0
 20 46  1  0  0  0  0
 20 47  1  0  0  0  0
 21 48  1  0  0  0  0
 22 49  1  0  0  0  0
 22 50  1  0  0  0  0
 23 24  1  0  0  0  0
 24 25  2  0  0  0  0
 24 51  1  0  0  0  0
 25 26  1  0  0  0  0
M  END
> <s_m_source_file>
AV-unprocessed.smi

> <i_m_source_file_index>
199

> <i_lp_mmshare_version>
43012

> <i_f3d_flags>
0

> <s_epik_input>
W0NIMl0xW0NIMl1PW0NAQEhdKFtDSDNdKVtDQEBdMShbT0hdKVtDSDJdbihbY0hdbjIpYyhjMjMpbltjSF1uYzNOKFtDQEBIXTQ1KVtDQEhdKFtDSDJdW0NIMl00KVtDQEhdKFtDSDJdNSlbQ0gyXVtPSF0=

> <s_epik_cmdline>
J2VwaWtfcHl0aG9uJywgJy1waCcsICc3LjAnLCAnLXRuJywgJzgnLCAnLW1hJywgJzIwMCcsICctbWV0YWxfYmluZGluZycsICctaW1hZScsICc8aW5maWxlLm1hZT4nLCAnLW9tYWUnLCAnPG91dGZpbGUubWFlPic=

> <r_lp_tautomer_probability>
1

> <r_epik_Ionization_Penalty>
0.00583903

> <r_epik_Ionization_Penalty_Charging>
0

> <r_epik_Ionization_Penalty_Neutral>
0.00583903

> <r_epik_State_Penalty>
-0

> <r_epik_Charging_Adjusted_Penalty>
0

> <i_epik_Tot_Q>
0

> <i_epik_Tot_abs_Q>
0

> <r_epik_Metal_State_Penalty>
-0

> <b_epik_Metal_Only>
0

> <s_lp_Force_Field>
OPLS_2005

> <r_lp_Energy>
83.7467

> <b_lp_Chiralities_Consistent>
1

> <s_lp_Variant>
AV-unprocessed.smi:199-10

> <Gold.Version>
5.8.1

> <Gold.Id.Protein>
6NUR|6NUR_protein|mol2

> <Gold.PLP.Fitness>
46.0715

> <Gold.PLP.PLP>
-38.9973

> <Gold.PLP.part.hbond>
-5.0000

> <Gold.PLP.part.metal>
0.0000

> <Gold.PLP.part.buried>
-2.0873

> <Gold.PLP.part.nonpolar>
-33.1574

> <Gold.PLP.part.repulsive>
0.4872

> <Gold.PLP.ligand.clash>
0.0000

> <Gold.PLP.ligand.torsion>
0.9844

> <Gold.PLP.Chemscore.Hbond>
3.0000

> <Gold.PLP.Chemscore.CHOScore>
0.0000

> <Gold.PLP.Chemscore.Metal>
0.0000

> <Gold.Chemscore.Hbonds>
donor molecule, donor type, donor heavy atom, donor atom, acceptor molecule, acceptor atom, score
      L1  H    21    48       P1  7921  0.76
      P1  H  6896  6908       L1     7  1.00
      P1  H 10192 10197       L1    21  1.00

> <Gold.PLP.Chemscore.Internal.Correction>
0.0431

> <Gold.Rescore>
     Score         DG    S(hbond)    S(metal)    S(lipo)     H(rot)  DE(clash)    DE(int)     intcor
     15.50     -19.34       2.91        0.00     102.76       3.07       1.72       2.12       ----

> <Gold.Chemscore.Fitness>
15.5024

> <Gold.Chemscore.DG>
-19.3408

> <Gold.Chemscore.ZeroCoef>
-5.4800

> <Gold.Chemscore.Hbond>
2.9054

> <Gold.Chemscore.Metal>
0.0000

> <Gold.Chemscore.Lipo>
102.7639

> <Gold.Chemscore.Internal_Hbond>
0.0000

> <Gold.Chemscore.DEClash>
1.7155

> <Gold.Chemscore.DEInternal>
2.1228

> <Gold.Chemscore.Rot>
3.0729

> <Gold.Chemscore.Internal.Correction>
   9.000000E+99

> <Gold.Chemscore.Hbonds>
donor molecule, donor type, donor heavy atom, donor atom, acceptor molecule, acceptor atom, score
      L1  H    21    48       P1  7921  0.71
      P1  H  6896  6908       L1     7  0.93
      P1  H 10192 10197       L1    21  0.26

> <Gold.Chemscore.Hbond.Weighted>
-9.7041

> <Gold.Chemscore.Metal.Weighted>
-0.0000

> <Gold.Chemscore.Lipo.Weighted>
-12.0234

> <Gold.Chemscore.Internal_Hbond.Weighted>
0.0000

> <Gold.Chemscore.DEClash.Weighted>
1.7155

> <Gold.Chemscore.DEInternal.Weighted>
2.1228

> <Gold.Chemscore.Rot.Weighted>
7.8667

> <Gold.Chemscore.Internal.Correction.Weighted>
   9.000000E+99

> <Gold.Protein.RotatedTorsions>
[ 6907 6896 6895 6894 ] final   78.84 input  -60.11 | X-H torsion
[ 7974 7965 7964 7962 ] final   35.23 input  175.53 | X-H torsion
[ 8008 7997 7996 7995 ] final  166.80 input   59.86 | X-H torsion
[ 10167 10162 10161 10158 ] final  157.52 input  -65.29 | X-H torsion
[ 10718 10713 10712 10709 ] final  -45.45 input   66.30 | X-H torsion
[ 10763 10752 10751 10750 ] final  163.10 input  -60.55 | X-H torsion
[ 11005 11000 10999 10996 ] final  -94.68 input  -57.11 | X-H torsion

> <Gold.Protein.ActiveResidues>
 VAL166  LYS551  ARG553  GLY616  TRP617  ASP618  TYR619  PRO620  LYS621  CYS622 
 ASP623  PHE694  ASN695  SER759  ASP760  ASP761  ALA762  ILE779  LEU786  VAL792 
 PHE793  MET794  SER795  GLU796  ALA797  LYS798  CYS799  TRP800  GLU811  SER814 

> <Gold.Protein.RotatedAtoms>
  152.5175  134.3603  159.9281 H   0  0  0  0  0  0  0  0  0  0  0  0  # atno 6907 bound_to 6896
  151.3555  133.3903  159.2692 H   0  0  0  0  0  0  0  0  0  0  0  0  # atno 6908 bound_to 6896
  150.9693  134.9088  159.7836 H   0  0  0  0  0  0  0  0  0  0  0  0  # atno 6909 bound_to 6896
  146.1297  139.6168  142.9235 H   0  0  0  0  0  0  0  0  0  0  0  0  # atno 7974 bound_to 7965
  156.1687  140.1633  156.8485 H   0  0  0  0  0  0  0  0  0  0  0  0  # atno 8008 bound_to 7997
  154.5235  140.0773  156.8249 H   0  0  0  0  0  0  0  0  0  0  0  0  # atno 8009 bound_to 7997
  155.3557  140.3392  155.4242 H   0  0  0  0  0  0  0  0  0  0  0  0  # atno 8010 bound_to 7997
  139.4823  144.4910  151.8308 H   0  0  0  0  0  0  0  0  0  0  0  0  # atno 10167 bound_to 10162
  156.2282  130.4171  149.8907 H   0  0  0  0  0  0  0  0  0  0  0  0  # atno 10718 bound_to 10713
  154.2885  135.2761  155.2665 H   0  0  0  0  0  0  0  0  0  0  0  0  # atno 10763 bound_to 10752
  154.5155  135.5771  153.6642 H   0  0  0  0  0  0  0  0  0  0  0  0  # atno 10764 bound_to 10752
  152.9918  135.6191  154.3048 H   0  0  0  0  0  0  0  0  0  0  0  0  # atno 10765 bound_to 10752
  141.1463  133.7973  157.0331 H   0  0  0  0  0  0  0  0  0  0  0  0  # atno 11005 bound_to 11000
  145.5287  141.0428  143.2395 LP  0  0  0  0  0  0  0  0  0  0  0  0  # atno 17320 bound_to 7965
  144.7678  139.6805  143.7207 LP  0  0  0  0  0  0  0  0  0  0  0  0  # atno 17321 bound_to 7965
  140.4394  144.2007  150.5890 LP  0  0  0  0  0  0  0  0  0  0  0  0  # atno 17342 bound_to 10162
  140.4698  143.2417  151.9104 LP  0  0  0  0  0  0  0  0  0  0  0  0  # atno 17343 bound_to 10162
  156.6530  130.8751  151.3534 LP  0  0  0  0  0  0  0  0  0  0  0  0  # atno 17370 bound_to 10713
  157.7120  130.9452  150.1124 LP  0  0  0  0  0  0  0  0  0  0  0  0  # atno 17371 bound_to 10713
  140.0741  134.9686  157.1516 LP  0  0  0  0  0  0  0  0  0  0  0  0  # atno 17394 bound_to 11000
  140.3669  134.2433  155.7181 LP  0  0  0  0  0  0  0  0  0  0  0  0  # atno 17395 bound_to 11000

$$$$
