AV-unprocessed.smi:536|AV-procd|sdf|2863|dock1
  -GOLD-   2262023353D 1   1.00000     0.00000
 Structure written by MMmdl.
 45 47  0  0  0  0  0  0  0  0  2 V2000
  155.7353  140.6291  164.0471 C   0  0  0  0  0  0  0  0  0  0  0  0
  156.2561  140.7273  162.7342 O   0  0  0  0  0  0  0  0  0  0  0  0
  155.5562  139.9179  161.8042 C   0  0  0  0  0  0  0  0  0  0  0  0
  154.0915  140.3714  161.6706 C   0  0  0  0  0  0  0  0  0  0  0  0
  153.5082  140.0930  160.3588 N   0  0  0  0  0  0  0  0  0  0  0  0
  152.9576  140.9762  159.4831 C   0  0  0  0  0  0  0  0  0  0  0  0
  152.9120  142.3466  159.7420 N   0  0  0  0  0  0  0  0  0  0  0  0
  152.6274  142.9212  161.0528 C   0  0  0  0  0  0  0  0  0  0  0  0
  151.4823  143.9519  161.0635 C   0  0  0  0  0  0  0  0  0  0  0  0
  151.8850  145.3037  160.4550 C   0  0  0  0  0  0  0  0  0  0  0  0
  151.8080  145.3784  158.9193 C   0  0  0  0  0  0  0  0  0  0  0  0
  152.2872  144.1367  158.1437 C   0  0  0  0  0  0  0  0  0  0  0  0
  153.4245  143.3430  158.8060 C   0  0  0  0  0  0  0  0  0  0  0  0
  152.4413  140.4255  158.3833 N   0  0  0  0  0  0  0  0  0  0  0  0
  152.7012  139.0755  158.5617 C   0  0  0  0  0  0  0  0  0  0  0  0
  153.3329  138.8469  159.7446 C   0  0  0  0  0  0  0  0  0  0  0  0
  153.7113  137.4979  160.2252 C   0  0  0  0  0  0  0  0  0  0  0  0
  154.2612  137.3395  161.3132 O   0  0  0  0  0  0  0  0  0  0  0  0
  153.3725  136.5158  159.3310 N   0  5  0  0  0  0  0  0  0  0  0  0
  152.7396  136.7042  158.1216 C   0  0  0  0  0  0  0  0  0  0  0  0
  152.4704  135.7621  157.3749 O   0  0  0  0  0  0  0  0  0  0  0  0
  152.3926  137.9686  157.7246 N   0  0  0  0  0  0  0  0  0  0  0  0
  151.7126  138.1978  156.4466 C   0  0  0  0  0  0  0  0  0  0  0  0
  156.3109  141.2679  164.7170 H   0  0  0  0  0  0  0  0  0  0  0  0
  155.7974  139.6063  164.4206 H   0  0  0  0  0  0  0  0  0  0  0  0
  154.6946  140.9540  164.0835 H   0  0  0  0  0  0  0  0  0  0  0  0
  156.0399  139.9705  160.8280 H   0  0  0  0  0  0  0  0  0  0  0  0
  155.6060  138.8782  162.1217 H   0  0  0  0  0  0  0  0  0  0  0  0
  153.4818  139.8905  162.4335 H   0  0  0  0  0  0  0  0  0  0  0  0
  154.0063  141.4359  161.8821 H   0  0  0  0  0  0  0  0  0  0  0  0
  152.3927  142.1076  161.7380 H   0  0  0  0  0  0  0  0  0  0  0  0
  153.5383  143.3711  161.4494 H   0  0  0  0  0  0  0  0  0  0  0  0
  150.5828  143.5630  160.5876 H   0  0  0  0  0  0  0  0  0  0  0  0
  151.2127  144.1252  162.1057 H   0  0  0  0  0  0  0  0  0  0  0  0
  151.2412  146.0836  160.8630 H   0  0  0  0  0  0  0  0  0  0  0  0
  152.8924  145.5601  160.7851 H   0  0  0  0  0  0  0  0  0  0  0  0
  150.7805  145.5895  158.6212 H   0  0  0  0  0  0  0  0  0  0  0  0
  152.3873  146.2441  158.5968 H   0  0  0  0  0  0  0  0  0  0  0  0
  151.4440  143.4705  157.9557 H   0  0  0  0  0  0  0  0  0  0  0  0
  152.6153  144.4655  157.1573 H   0  0  0  0  0  0  0  0  0  0  0  0
  154.1420  144.0075  159.2888 H   0  0  0  0  0  0  0  0  0  0  0  0
  153.9809  142.8190  158.0282 H   0  0  0  0  0  0  0  0  0  0  0  0
  150.7733  137.6445  156.4085 H   0  0  0  0  0  0  0  0  0  0  0  0
  152.3386  137.8664  155.6168 H   0  0  0  0  0  0  0  0  0  0  0  0
  151.4765  139.2483  156.2773 H   0  0  0  0  0  0  0  0  0  0  0  0
  1  2  1  0  0  0  0
  1 24  1  0  0  0  0
  1 25  1  0  0  0  0
  1 26  1  0  0  0  0
  2  3  1  0  0  0  0
  3  4  1  0  0  0  0
  3 27  1  0  0  0  0
  3 28  1  0  0  0  0
  4  5  1  0  0  0  0
  4 29  1  0  0  0  0
  4 30  1  0  0  0  0
  5 16  1  0  0  0  0
  5  6  1  0  0  0  0
  6  7  1  0  0  0  0
  6 14  2  0  0  0  0
  7 13  1  0  0  0  0
  7  8  1  0  0  0  0
  8  9  1  0  0  0  0
  8 31  1  0  0  0  0
  8 32  1  0  0  0  0
  9 10  1  0  0  0  0
  9 33  1  0  0  0  0
  9 34  1  0  0  0  0
 10 11  1  0  0  0  0
 10 35  1  0  0  0  0
 10 36  1  0  0  0  0
 11 12  1  0  0  0  0
 11 37  1  0  0  0  0
 11 38  1  0  0  0  0
 12 13  1  0  0  0  0
 12 39  1  0  0  0  0
 12 40  1  0  0  0  0
 13 41  1  0  0  0  0
 13 42  1  0  0  0  0
 14 15  1  0  0  0  0
 15 22  1  0  0  0  0
 15 16  2  0  0  0  0
 16 17  1  0  0  0  0
 17 18  2  0  0  0  0
 17 19  1  0  0  0  0
 19 20  1  0  0  0  0
 20 21  2  0  0  0  0
 20 22  1  0  0  0  0
 22 23  1  0  0  0  0
 23 43  1  0  0  0  0
 23 44  1  0  0  0  0
 23 45  1  0  0  0  0
M  CHG  1  19  -1
M  END
> <s_m_source_file>
AV-unprocessed.smi

> <i_m_source_file_index>
536

> <i_lp_mmshare_version>
43012

> <i_f3d_flags>
0

> <s_epik_input>
W0NIM11uMWMoPU8pW25IXWMoPU8pYyhjMTIpbihbQ0gyXVtDSDJdT1tDSDNdKWMobjIpTjNbQ0gyXVtDSDJdW0NIMl1bQ0gyXVtDSDJdW0NIMl0z

> <s_epik_cmdline>
J2VwaWtfcHl0aG9uJywgJy1waCcsICc3LjAnLCAnLXRuJywgJzgnLCAnLW1hJywgJzIwMCcsICctbWV0YWxfYmluZGluZycsICctaW1hZScsICc8aW5maWxlLm1hZT4nLCAnLW9tYWUnLCAnPG91dGZpbGUubWFlPic=

> <r_lp_tautomer_probability>
1

> <r_epik_Ionization_Penalty>
6.16859

> <r_epik_Ionization_Penalty_Charging>
0.0798692

> <r_epik_Ionization_Penalty_Neutral>
6.08873

> <r_epik_State_Penalty>
6.08498

> <r_epik_Charging_Adjusted_Penalty>
6.16485

> <i_epik_Tot_Q>
-1

> <i_epik_Tot_abs_Q>
1

> <r_epik_Metal_State_Penalty>
2.03194

> <b_epik_Metal_Only>
1

> <s_lp_Force_Field>
OPLS_2005

> <r_lp_Energy>
48.7455

> <b_lp_Chiralities_Consistent>
1

> <s_lp_Variant>
AV-unprocessed.smi:536-2

> <Gold.Version>
5.8.1

> <Gold.Id.Protein>
6NUR|6NUR_protein|mol2

> <Gold.PLP.Fitness>
49.9983

> <Gold.PLP.PLP>
-44.2310

> <Gold.PLP.part.hbond>
-2.4591

> <Gold.PLP.part.metal>
0.0000

> <Gold.PLP.part.buried>
-6.1099

> <Gold.PLP.part.nonpolar>
-36.8923

> <Gold.PLP.part.repulsive>
0.0000

> <Gold.PLP.ligand.clash>
0.0000

> <Gold.PLP.ligand.torsion>
0.9876

> <Gold.PLP.Chemscore.Hbond>
2.3075

> <Gold.PLP.Chemscore.CHOScore>
0.0000

> <Gold.PLP.Chemscore.Metal>
0.0000

> <Gold.Chemscore.Hbonds>
donor molecule, donor type, donor heavy atom, donor atom, acceptor molecule, acceptor atom, score
      P1  H  6896  6908       L1    19  1.46
      P1  H 10752 10764       L1    21  0.26

> <Gold.PLP.Chemscore.Internal.Correction>
0.8201

> <Gold.Rescore>
     Score         DG    S(hbond)    S(metal)    S(lipo)     H(rot)  DE(clash)    DE(int)     intcor
     15.10     -18.54       1.27        0.00     106.96       1.44       0.09       3.35       ----

> <Gold.Chemscore.Fitness>
15.0967

> <Gold.Chemscore.DG>
-18.5406

> <Gold.Chemscore.ZeroCoef>
-5.4800

> <Gold.Chemscore.Hbond>
1.2652

> <Gold.Chemscore.Metal>
0.0000

> <Gold.Chemscore.Lipo>
106.9582

> <Gold.Chemscore.Internal_Hbond>
0.0000

> <Gold.Chemscore.DEClash>
0.0897

> <Gold.Chemscore.DEInternal>
3.3543

> <Gold.Chemscore.Rot>
1.4372

> <Gold.Chemscore.Internal.Correction>
   9.000000E+99

> <Gold.Chemscore.Hbonds>
donor molecule, donor type, donor heavy atom, donor atom, acceptor molecule, acceptor atom, score
      P1  H  6896  6908       L1    19  0.11
      P1  H 10752 10764       L1    21  0.27

> <Gold.Chemscore.Hbond.Weighted>
-4.2259

> <Gold.Chemscore.Metal.Weighted>
-0.0000

> <Gold.Chemscore.Lipo.Weighted>
-12.5141

> <Gold.Chemscore.Internal_Hbond.Weighted>
0.0000

> <Gold.Chemscore.DEClash.Weighted>
0.0897

> <Gold.Chemscore.DEInternal.Weighted>
3.3543

> <Gold.Chemscore.Rot.Weighted>
3.6793

> <Gold.Chemscore.Internal.Correction.Weighted>
   9.000000E+99

> <Gold.Protein.RotatedTorsions>
[ 6907 6896 6895 6894 ] final  -85.33 input  -60.11 | X-H torsion
[ 7974 7965 7964 7962 ] final  -40.26 input  175.53 | X-H torsion
[ 8008 7997 7996 7995 ] final -171.10 input   59.86 | X-H torsion
[ 10167 10162 10161 10158 ] final -168.78 input  -65.29 | X-H torsion
[ 10718 10713 10712 10709 ] final   80.11 input   66.30 | X-H torsion
[ 10763 10752 10751 10750 ] final  -11.28 input  -60.55 | X-H torsion
[ 11005 11000 10999 10996 ] final   -0.50 input  -57.11 | X-H torsion

> <Gold.Protein.ActiveResidues>
 VAL166  LYS551  ARG553  GLY616  TRP617  ASP618  TYR619  PRO620  LYS621  CYS622 
 ASP623  PHE694  ASN695  SER759  ASP760  ASP761  ALA762  ILE779  LEU786  VAL792 
 PHE793  MET794  SER795  GLU796  ALA797  LYS798  CYS799  TRP800  GLU811  SER814 

> <Gold.Protein.RotatedAtoms>
  150.6871  134.3220  159.4790 H   0  0  0  0  0  0  0  0  0  0  0  0  # atno 6907 bound_to 6896
  152.1095  134.9282  160.0576 H   0  0  0  0  0  0  0  0  0  0  0  0  # atno 6908 bound_to 6896
  152.0530  133.3993  159.4422 H   0  0  0  0  0  0  0  0  0  0  0  0  # atno 6909 bound_to 6896
  146.0321  140.6719  142.9128 H   0  0  0  0  0  0  0  0  0  0  0  0  # atno 7974 bound_to 7965
  155.9271  140.1084  157.1162 H   0  0  0  0  0  0  0  0  0  0  0  0  # atno 8008 bound_to 7997
  154.4064  140.1245  156.4820 H   0  0  0  0  0  0  0  0  0  0  0  0  # atno 8009 bound_to 7997
  155.7125  140.3471  155.4982 H   0  0  0  0  0  0  0  0  0  0  0  0  # atno 8010 bound_to 7997
  139.5964  144.1104  152.1693 H   0  0  0  0  0  0  0  0  0  0  0  0  # atno 10167 bound_to 10162
  157.6796  130.9944  150.2030 H   0  0  0  0  0  0  0  0  0  0  0  0  # atno 10718 bound_to 10713
  153.4815  135.7017  153.5935 H   0  0  0  0  0  0  0  0  0  0  0  0  # atno 10763 bound_to 10752
  153.4146  135.3840  155.2072 H   0  0  0  0  0  0  0  0  0  0  0  0  # atno 10764 bound_to 10752
  154.8721  135.3913  154.4265 H   0  0  0  0  0  0  0  0  0  0  0  0  # atno 10765 bound_to 10752
  140.6370  133.9524  155.8305 H   0  0  0  0  0  0  0  0  0  0  0  0  # atno 11005 bound_to 11000
  144.7035  140.3754  143.7137 LP  0  0  0  0  0  0  0  0  0  0  0  0  # atno 17320 bound_to 7965
  145.7024  139.1664  143.2585 LP  0  0  0  0  0  0  0  0  0  0  0  0  # atno 17321 bound_to 7965
  140.0690  144.5795  150.7206 LP  0  0  0  0  0  0  0  0  0  0  0  0  # atno 17342 bound_to 10162
  140.7215  143.2593  151.4263 LP  0  0  0  0  0  0  0  0  0  0  0  0  # atno 17343 bound_to 10162
  156.2717  130.3722  149.8025 LP  0  0  0  0  0  0  0  0  0  0  0  0  # atno 17370 bound_to 10713
  156.5740  130.8437  151.3364 LP  0  0  0  0  0  0  0  0  0  0  0  0  # atno 17371 bound_to 10713
  141.0634  134.0312  157.3627 LP  0  0  0  0  0  0  0  0  0  0  0  0  # atno 17394 bound_to 11000
  139.9094  135.0187  156.7629 LP  0  0  0  0  0  0  0  0  0  0  0  0  # atno 17395 bound_to 11000

$$$$
