AV-unprocessed.smi:3110|AV-procd|sdf|11831|dock2
  -GOLD-   2272017203D 1   1.00000     0.00000
 Structure written by MMmdl.
 33 34  0  0  0  0  0  0  0  0  1 V2000
  150.8373  141.1227  158.0254 O   0  0  0  0  0  0  0  0  0  0  0  0
  150.4549  142.0902  157.3672 C   0  0  0  0  0  0  0  0  0  0  0  0
  150.9204  143.5049  157.7272 C   0  0  0  0  0  0  0  0  0  0  0  0
  150.7639  143.8357  159.2260 C   0  0  1  0  0  0  0  0  0  0  0  0
  151.7167  143.0467  160.0864 C   0  0  0  0  0  0  0  0  0  0  0  0
  152.4118  143.8141  160.9230 C   0  0  0  0  0  0  0  0  0  0  0  0
  152.0652  145.2709  160.7900 C   0  0  0  0  0  0  0  0  0  0  0  0
  151.0846  145.3088  159.5972 C   0  0  0  0  0  0  0  0  0  0  0  0
  149.6269  141.9842  156.3167 N   0  0  0  0  0  0  0  0  0  0  0  0
  149.0633  140.7354  155.8187 C   0  0  0  0  0  0  0  0  0  0  0  0
  149.7161  140.3098  154.4929 C   0  0  0  0  0  0  0  0  0  0  0  0
  150.7004  139.2669  154.6976 N   0  0  0  0  0  0  0  0  0  0  0  0
  151.8714  139.3520  155.4391 C   0  0  0  0  0  0  0  0  0  0  0  0
  152.4820  138.1213  155.3508 C   0  0  0  0  0  0  0  0  0  0  0  0
  151.7085  137.2690  154.5662 N   0  0  0  0  0  0  0  0  0  0  0  0
  150.6708  138.0174  154.2145 C   0  0  0  0  0  0  0  0  0  0  0  0
  151.9683  143.5946  157.4383 H   0  0  0  0  0  0  0  0  0  0  0  0
  150.3727  144.2359  157.1299 H   0  0  0  0  0  0  0  0  0  0  0  0
  149.7558  143.5831  159.5584 H   0  0  0  0  0  0  0  0  0  0  0  0
  151.7943  141.9713  160.0210 H   0  0  0  0  0  0  0  0  0  0  0  0
  153.1383  143.4572  161.6381 H   0  0  0  0  0  0  0  0  0  0  0  0
  151.5969  145.6245  161.7091 H   0  0  0  0  0  0  0  0  0  0  0  0
  152.9588  145.8662  160.6010 H   0  0  0  0  0  0  0  0  0  0  0  0
  151.5583  145.8248  158.7609 H   0  0  0  0  0  0  0  0  0  0  0  0
  150.1783  145.8643  159.8410 H   0  0  0  0  0  0  0  0  0  0  0  0
  149.3649  142.8299  155.8310 H   0  0  0  0  0  0  0  0  0  0  0  0
  149.2239  139.9667  156.5753 H   0  0  0  0  0  0  0  0  0  0  0  0
  147.9827  140.8346  155.7011 H   0  0  0  0  0  0  0  0  0  0  0  0
  148.9663  139.9412  153.7914 H   0  0  0  0  0  0  0  0  0  0  0  0
  150.2045  141.1613  154.0173 H   0  0  0  0  0  0  0  0  0  0  0  0
  152.1647  140.2549  155.9543 H   0  0  0  0  0  0  0  0  0  0  0  0
  153.4105  137.7858  155.7890 H   0  0  0  0  0  0  0  0  0  0  0  0
  149.8678  137.6471  153.5938 H   0  0  0  0  0  0  0  0  0  0  0  0
  1  2  2  0  0  0  0
  2  3  1  0  0  0  0
  2  9  1  0  0  0  0
  3  4  1  0  0  0  0
  3 17  1  0  0  0  0
  3 18  1  0  0  0  0
  4  8  1  0  0  0  0
  4  5  1  0  0  0  0
  4 19  1  0  0  0  0
  5  6  2  0  0  0  0
  5 20  1  0  0  0  0
  6  7  1  0  0  0  0
  6 21  1  0  0  0  0
  7  8  1  0  0  0  0
  7 22  1  0  0  0  0
  7 23  1  0  0  0  0
  8 24  1  0  0  0  0
  8 25  1  0  0  0  0
  9 10  1  0  0  0  0
  9 26  1  0  0  0  0
 10 11  1  0  0  0  0
 10 27  1  0  0  0  0
 10 28  1  0  0  0  0
 11 12  1  0  0  0  0
 11 29  1  0  0  0  0
 11 30  1  0  0  0  0
 12 16  1  0  0  0  0
 12 13  1  0  0  0  0
 13 14  2  0  0  0  0
 13 31  1  0  0  0  0
 14 15  1  0  0  0  0
 14 32  1  0  0  0  0
 15 16  2  0  0  0  0
 16 33  1  0  0  0  0
M  END
> <s_m_source_file>
AV-unprocessed.smi

> <i_m_source_file_index>
3110

> <i_lp_mmshare_version>
43012

> <i_f3d_flags>
0

> <s_epik_input>
W0NIMl0xW0NIMl1bQ0hdPVtDSF1bQ0BIXTFbQ0gyXUMoPU8pW05IXVtDSDJdW0NIMl1uMltjSF1bY0hdbltjSF0y

> <s_epik_cmdline>
J2VwaWtfcHl0aG9uJywgJy1waCcsICc3LjAnLCAnLXRuJywgJzgnLCAnLW1hJywgJzIwMCcsICctbWV0YWxfYmluZGluZycsICctaW1hZScsICc8aW5maWxlLm1hZT4nLCAnLW9tYWUnLCAnPG91dGZpbGUubWFlPic=

> <r_lp_tautomer_probability>
1

> <r_epik_Ionization_Penalty>
0.593629

> <r_epik_Ionization_Penalty_Charging>
0.593629

> <r_epik_Ionization_Penalty_Neutral>
1.57355e-08

> <r_epik_State_Penalty>
0.607413

> <r_epik_Charging_Adjusted_Penalty>
1.20104

> <i_epik_Tot_Q>
0

> <i_epik_Tot_abs_Q>
0

> <r_epik_Metal_State_Penalty>
0.299385

> <b_epik_Metal_Only>
0

> <s_lp_Force_Field>
OPLS_2005

> <r_lp_Energy>
16.9466

> <b_lp_Chiralities_Consistent>
1

> <s_lp_Variant>
AV-unprocessed.smi:3110-4

> <Gold.Version>
5.8.1

> <Gold.Id.Protein>
6NUR|6NUR_protein|mol2

> <Gold.PLP.Fitness>
43.3558

> <Gold.PLP.PLP>
-35.4482

> <Gold.PLP.part.hbond>
-2.0000

> <Gold.PLP.part.metal>
0.0000

> <Gold.PLP.part.buried>
-0.5045

> <Gold.PLP.part.nonpolar>
-33.0366

> <Gold.PLP.part.repulsive>
0.2294

> <Gold.PLP.ligand.clash>
0.0000

> <Gold.PLP.ligand.torsion>
0.5120

> <Gold.PLP.Chemscore.Hbond>
1.9440

> <Gold.PLP.Chemscore.CHOScore>
1.0117

> <Gold.PLP.Chemscore.Metal>
0.0000

> <Gold.Chemscore.Hbonds>
donor molecule, donor type, donor heavy atom, donor atom, acceptor molecule, acceptor atom, score
      L1  H     9    26       P1  8028  1.00
      P1  H 10752 10763       L1    15  0.94
      L1  C    16    33       P1  7948  1.00

> <Gold.PLP.Chemscore.Internal.Correction>
0.0645

> <Gold.Rescore>
     Score         DG    S(hbond)    S(metal)    S(lipo)     H(rot)  DE(clash)    DE(int)     intcor
     14.25     -16.63       1.66        0.00      91.97       2.01       0.77       1.62       ----

> <Gold.Chemscore.Fitness>
14.2472

> <Gold.Chemscore.DG>
-16.6311

> <Gold.Chemscore.ZeroCoef>
-5.4800

> <Gold.Chemscore.Hbond>
1.6583

> <Gold.Chemscore.Metal>
0.0000

> <Gold.Chemscore.Lipo>
91.9656

> <Gold.Chemscore.Internal_Hbond>
0.0000

> <Gold.Chemscore.DEClash>
0.7676

> <Gold.Chemscore.DEInternal>
1.6163

> <Gold.Chemscore.Rot>
2.0108

> <Gold.Chemscore.Internal.Correction>
   9.000000E+99

> <Gold.Chemscore.Hbonds>
donor molecule, donor type, donor heavy atom, donor atom, acceptor molecule, acceptor atom, score
      L1  H     9    26       P1  8028  0.97
      P1  H 10752 10763       L1    15  0.34

> <Gold.Chemscore.Hbond.Weighted>
-5.5389

> <Gold.Chemscore.Metal.Weighted>
-0.0000

> <Gold.Chemscore.Lipo.Weighted>
-10.7600

> <Gold.Chemscore.Internal_Hbond.Weighted>
0.0000

> <Gold.Chemscore.DEClash.Weighted>
0.7676

> <Gold.Chemscore.DEInternal.Weighted>
1.6163

> <Gold.Chemscore.Rot.Weighted>
5.1477

> <Gold.Chemscore.Internal.Correction.Weighted>
   9.000000E+99

> <Gold.Protein.RotatedTorsions>
[ 6907 6896 6895 6894 ] final -143.33 input  -60.11 | X-H torsion
[ 7974 7965 7964 7962 ] final  -36.66 input  175.53 | X-H torsion
[ 8008 7997 7996 7995 ] final -135.21 input   59.86 | X-H torsion
[ 10167 10162 10161 10158 ] final  -74.61 input  -65.29 | X-H torsion
[ 10718 10713 10712 10709 ] final   69.69 input   66.30 | X-H torsion
[ 10763 10752 10751 10750 ] final   36.76 input  -60.55 | X-H torsion
[ 11005 11000 10999 10996 ] final  -75.39 input  -57.11 | X-H torsion

> <Gold.Protein.ActiveResidues>
 VAL166  LYS551  ARG553  GLY616  TRP617  ASP618  TYR619  PRO620  LYS621  CYS622 
 ASP623  PHE694  ASN695  SER759  ASP760  ASP761  ALA762  ILE779  LEU786  VAL792 
 PHE793  MET794  SER795  GLU796  ALA797  LYS798  CYS799  TRP800  GLU811  SER814 

> <Gold.Protein.RotatedAtoms>
  151.0990  133.5258  159.2610 H   0  0  0  0  0  0  0  0  0  0  0  0  # atno 6907 bound_to 6896
  151.2096  135.0475  159.8915 H   0  0  0  0  0  0  0  0  0  0  0  0  # atno 6908 bound_to 6896
  152.5441  134.0807  159.8288 H   0  0  0  0  0  0  0  0  0  0  0  0  # atno 6909 bound_to 6896
  146.0642  140.6305  142.8983 H   0  0  0  0  0  0  0  0  0  0  0  0  # atno 7974 bound_to 7965
  155.3749  140.0490  157.3045 H   0  0  0  0  0  0  0  0  0  0  0  0  # atno 8008 bound_to 7997
  154.5111  140.2192  155.9116 H   0  0  0  0  0  0  0  0  0  0  0  0  # atno 8009 bound_to 7997
  156.1584  140.3121  155.8770 H   0  0  0  0  0  0  0  0  0  0  0  0  # atno 8010 bound_to 7997
  140.5012  143.2361  151.7748 H   0  0  0  0  0  0  0  0  0  0  0  0  # atno 10167 bound_to 10162
  157.6360  130.9439  150.0548 H   0  0  0  0  0  0  0  0  0  0  0  0  # atno 10718 bound_to 10713
  153.0064  135.6296  154.2037 H   0  0  0  0  0  0  0  0  0  0  0  0  # atno 10763 bound_to 10752
  154.1780  135.2815  155.3062 H   0  0  0  0  0  0  0  0  0  0  0  0  # atno 10764 bound_to 10752
  154.5856  135.5633  153.7288 H   0  0  0  0  0  0  0  0  0  0  0  0  # atno 10765 bound_to 10752
  141.1645  133.6945  156.7510 H   0  0  0  0  0  0  0  0  0  0  0  0  # atno 11005 bound_to 11000
  144.7193  140.4317  143.7020 LP  0  0  0  0  0  0  0  0  0  0  0  0  # atno 17320 bound_to 7965
  145.6506  139.1564  143.2864 LP  0  0  0  0  0  0  0  0  0  0  0  0  # atno 17321 bound_to 7965
  139.4872  144.4519  151.9644 LP  0  0  0  0  0  0  0  0  0  0  0  0  # atno 17342 bound_to 10162
  140.3608  144.2975  150.5934 LP  0  0  0  0  0  0  0  0  0  0  0  0  # atno 17343 bound_to 10162
  156.1599  130.3643  149.9314 LP  0  0  0  0  0  0  0  0  0  0  0  0  # atno 17370 bound_to 10713
  156.7315  130.9045  151.3626 LP  0  0  0  0  0  0  0  0  0  0  0  0  # atno 17371 bound_to 10713
  140.2604  134.8471  157.3753 LP  0  0  0  0  0  0  0  0  0  0  0  0  # atno 17394 bound_to 11000
  140.1617  134.4720  155.7890 LP  0  0  0  0  0  0  0  0  0  0  0  0  # atno 17395 bound_to 11000

$$$$
