AV-unprocessed.smi:2895|AV-procd|sdf|11131|dock2
  -GOLD-   2272016 03D 1   1.00000     0.00000
 Structure written by MMmdl.
 53 56  0  0  0  0  0  0  0  0  2 V2000
  148.5592  141.9023  154.4070 O   0  0  0  0  0  0  0  0  0  0  0  0
  147.9522  141.0171  155.0113 C   0  0  0  0  0  0  0  0  0  0  0  0
  148.0585  140.8617  156.3420 N   0  0  0  0  0  0  0  0  0  0  0  0
  148.8929  141.6737  157.2204 C   0  0  0  0  0  0  0  0  0  0  0  0
  150.3591  141.2098  157.1999 C   0  0  0  0  0  0  0  0  0  0  0  0
  151.2177  141.9771  158.1864 C   0  0  0  0  0  0  0  0  0  0  0  0
  151.8900  141.3045  159.2276 C   0  0  0  0  0  0  0  0  0  0  0  0
  152.6767  142.0615  160.1187 C   0  0  0  0  0  0  0  0  0  0  0  0
  152.8203  143.4012  160.0267 N   0  0  0  0  0  0  0  0  0  0  0  0
  152.1732  144.0380  159.0268 C   0  0  0  0  0  0  0  0  0  0  0  0
  151.3625  143.3759  158.0832 C   0  0  0  0  0  0  0  0  0  0  0  0
  147.1071  140.1479  154.4009 N   0  0  0  0  0  0  0  0  0  0  0  0
  146.6174  138.8758  154.9552 C   0  0  0  0  0  0  0  0  0  0  0  0
  147.2830  137.7111  154.1957 C   0  0  0  0  0  0  0  0  0  0  0  0
  147.0398  137.7899  152.7263 N   0  3  0  0  0  0  0  0  0  0  0  0
  145.6836  137.3323  152.2960 C   0  0  1  0  0  0  0  0  0  0  0  0
  145.5936  136.9559  150.7965 C   0  0  0  0  0  0  0  0  0  0  0  0
  144.9190  135.5715  150.8200 C   0  0  1  0  0  0  0  0  0  0  0  0
  145.9514  134.5249  151.2720 C   0  0  0  0  0  0  0  0  0  0  0  0
  146.1306  134.8558  152.7643 C   0  0  0  0  0  0  0  0  0  0  0  0
  145.1626  136.0404  152.9759 C   0  0  2  0  0  0  0  0  0  0  0  0
  144.0157  135.6649  152.0434 C   0  0  0  0  0  0  0  0  0  0  0  0
  147.4085  139.1306  152.1861 C   0  0  0  0  0  0  0  0  0  0  0  0
  146.7540  140.2782  152.9829 C   0  0  0  0  0  0  0  0  0  0  0  0
  147.5190  140.1285  156.7787 H   0  0  0  0  0  0  0  0  0  0  0  0
  148.8170  142.7250  156.9372 H   0  0  0  0  0  0  0  0  0  0  0  0
  148.4939  141.5948  158.2320 H   0  0  0  0  0  0  0  0  0  0  0  0
  150.4159  140.1437  157.4248 H   0  0  0  0  0  0  0  0  0  0  0  0
  150.7846  141.3364  156.2035 H   0  0  0  0  0  0  0  0  0  0  0  0
  151.8076  140.2334  159.3419 H   0  0  0  0  0  0  0  0  0  0  0  0
  153.2053  141.5774  160.9264 H   0  0  0  0  0  0  0  0  0  0  0  0
  152.3050  145.1087  158.9768 H   0  0  0  0  0  0  0  0  0  0  0  0
  150.8657  143.9327  157.3023 H   0  0  0  0  0  0  0  0  0  0  0  0
  146.7984  138.7582  156.0234 H   0  0  0  0  0  0  0  0  0  0  0  0
  145.5336  138.8315  154.8427 H   0  0  0  0  0  0  0  0  0  0  0  0
  148.3610  137.7561  154.3566 H   0  0  0  0  0  0  0  0  0  0  0  0
  146.9727  136.7530  154.6093 H   0  0  0  0  0  0  0  0  0  0  0  0
  144.9668  138.1286  152.4998 H   0  0  0  0  0  0  0  0  0  0  0  0
  144.9832  137.6818  150.2580 H   0  0  0  0  0  0  0  0  0  0  0  0
  146.5642  136.9075  150.3010 H   0  0  0  0  0  0  0  0  0  0  0  0
  144.4143  135.3129  149.8886 H   0  0  0  0  0  0  0  0  0  0  0  0
  145.5595  133.5144  151.1478 H   0  0  0  0  0  0  0  0  0  0  0  0
  146.8859  134.5911  150.7137 H   0  0  0  0  0  0  0  0  0  0  0  0
  145.8349  134.0042  153.3786 H   0  0  0  0  0  0  0  0  0  0  0  0
  147.1632  135.0983  153.0153 H   0  0  0  0  0  0  0  0  0  0  0  0
  144.8544  136.1782  154.0126 H   0  0  0  0  0  0  0  0  0  0  0  0
  143.2507  136.4388  151.9587 H   0  0  0  0  0  0  0  0  0  0  0  0
  143.5383  134.7179  152.3024 H   0  0  0  0  0  0  0  0  0  0  0  0
  148.4932  139.2298  152.2475 H   0  0  0  0  0  0  0  0  0  0  0  0
  147.1634  139.2190  151.1283 H   0  0  0  0  0  0  0  0  0  0  0  0
  145.6689  140.2495  152.8800 H   0  0  0  0  0  0  0  0  0  0  0  0
  147.0566  141.2364  152.5583 H   0  0  0  0  0  0  0  0  0  0  0  0
  147.6786  137.1303  152.3053 H   0  0  0  0  0  0  0  0  0  0  0  0
  1  2  2  0  0  0  0
  2  3  1  0  0  0  0
  2 12  1  0  0  0  0
  3  4  1  0  0  0  0
  3 25  1  0  0  0  0
  4  5  1  0  0  0  0
  4 26  1  0  0  0  0
  4 27  1  0  0  0  0
  5  6  1  0  0  0  0
  5 28  1  0  0  0  0
  5 29  1  0  0  0  0
  6 11  1  0  0  0  0
  6  7  2  0  0  0  0
  7  8  1  0  0  0  0
  7 30  1  0  0  0  0
  8  9  2  0  0  0  0
  8 31  1  0  0  0  0
  9 10  1  0  0  0  0
 10 11  2  0  0  0  0
 10 32  1  0  0  0  0
 11 33  1  0  0  0  0
 12 24  1  0  0  0  0
 12 13  1  0  0  0  0
 13 14  1  0  0  0  0
 13 34  1  0  0  0  0
 13 35  1  0  0  0  0
 14 15  1  0  0  0  0
 14 36  1  0  0  0  0
 14 37  1  0  0  0  0
 15 16  1  0  0  0  0
 15 23  1  0  0  0  0
 15 53  1  0  0  0  0
 16 21  1  0  0  0  0
 16 17  1  0  0  0  0
 16 38  1  0  0  0  0
 17 18  1  0  0  0  0
 17 39  1  0  0  0  0
 17 40  1  0  0  0  0
 18 22  1  0  0  0  0
 18 19  1  0  0  0  0
 18 41  1  0  0  0  0
 19 20  1  0  0  0  0
 19 42  1  0  0  0  0
 19 43  1  0  0  0  0
 20 21  1  0  0  0  0
 20 44  1  0  0  0  0
 20 45  1  0  0  0  0
 21 22  1  0  0  0  0
 21 46  1  0  0  0  0
 22 47  1  0  0  0  0
 22 48  1  0  0  0  0
 23 24  1  0  0  0  0
 23 49  1  0  0  0  0
 23 50  1  0  0  0  0
 24 51  1  0  0  0  0
 24 52  1  0  0  0  0
M  CHG  1  15   1
M  END
> <s_m_source_file>
AV-unprocessed.smi

> <i_m_source_file_index>
2895

> <i_lp_mmshare_version>
43012

> <i_f3d_flags>
0

> <s_epik_input>
W0NIMl0xW0NIMl1bQ0BASF0oW0NIMl0yKVtDQEBIXShbQ0gyXVtDQEhdMTIpTihbQ0gyXVtDSDJdMylbQ0gyXVtDSDJdTjNDKD1PKVtOSF1bQ0gyXVtDSDJdYzRbY0hdW2NIXW5bY0hdW2NIXTQ=

> <s_epik_cmdline>
J2VwaWtfcHl0aG9uJywgJy1waCcsICc3LjAnLCAnLXRuJywgJzgnLCAnLW1hJywgJzIwMCcsICctbWV0YWxfYmluZGluZycsICctaW1hZScsICc8aW5maWxlLm1hZT4nLCAnLW9tYWUnLCAnPG91dGZpbGUubWFlPic=

> <r_epik_Ionization_Penalty>
0.0566172

> <r_epik_Ionization_Penalty_Charging>
0.00262064

> <r_epik_Ionization_Penalty_Neutral>
0.0539965

> <r_epik_State_Penalty>
0.0463959

> <r_epik_Charging_Adjusted_Penalty>
0.0490165

> <i_epik_Tot_Q>
1

> <i_epik_Tot_abs_Q>
1

> <r_epik_Metal_State_Penalty>
0.0424856

> <b_epik_Metal_Only>
0

> <s_lp_Force_Field>
OPLS_2005

> <r_lp_Energy>
99.8283

> <b_lp_Chiralities_Consistent>
1

> <s_lp_Variant>
AV-unprocessed.smi:2895-4

> <Gold.Version>
5.8.1

> <Gold.Id.Protein>
6NUR|6NUR_protein|mol2

> <Gold.PLP.Fitness>
44.8223

> <Gold.PLP.PLP>
-38.5056

> <Gold.PLP.part.hbond>
-2.0000

> <Gold.PLP.part.metal>
0.0000

> <Gold.PLP.part.buried>
5.8416

> <Gold.PLP.part.nonpolar>
-42.6669

> <Gold.PLP.part.repulsive>
0.2513

> <Gold.PLP.ligand.clash>
0.0000

> <Gold.PLP.ligand.torsion>
0.4385

> <Gold.PLP.Chemscore.Hbond>
2.3515

> <Gold.PLP.Chemscore.CHOScore>
0.0000

> <Gold.PLP.Chemscore.Metal>
0.0000

> <Gold.Chemscore.Hbonds>
donor molecule, donor type, donor heavy atom, donor atom, acceptor molecule, acceptor atom, score
      L1  H    15    53       P1  7948  2.00

> <Gold.PLP.Chemscore.Internal.Correction>
0.1392

> <Gold.Rescore>
     Score         DG    S(hbond)    S(metal)    S(lipo)     H(rot)  DE(clash)    DE(int)     intcor
     16.94     -20.71       1.43        0.00     119.38       1.37       3.32       0.44       ----

> <Gold.Chemscore.Fitness>
16.9434

> <Gold.Chemscore.DG>
-20.7095

> <Gold.Chemscore.ZeroCoef>
-5.4800

> <Gold.Chemscore.Hbond>
1.4302

> <Gold.Chemscore.Metal>
0.0000

> <Gold.Chemscore.Lipo>
119.3836

> <Gold.Chemscore.Internal_Hbond>
0.0000

> <Gold.Chemscore.DEClash>
3.3228

> <Gold.Chemscore.DEInternal>
0.4434

> <Gold.Chemscore.Rot>
1.3731

> <Gold.Chemscore.Internal.Correction>
   9.000000E+99

> <Gold.Chemscore.Hbonds>
donor molecule, donor type, donor heavy atom, donor atom, acceptor molecule, acceptor atom, score
      L1  H    15    53       P1  7948  0.99
      P1  H  8011  8017       L1     1  0.02

> <Gold.Chemscore.Hbond.Weighted>
-4.7768

> <Gold.Chemscore.Metal.Weighted>
-0.0000

> <Gold.Chemscore.Lipo.Weighted>
-13.9679

> <Gold.Chemscore.Internal_Hbond.Weighted>
0.0000

> <Gold.Chemscore.DEClash.Weighted>
3.3228

> <Gold.Chemscore.DEInternal.Weighted>
0.4434

> <Gold.Chemscore.Rot.Weighted>
3.5152

> <Gold.Chemscore.Internal.Correction.Weighted>
   9.000000E+99

> <Gold.Protein.RotatedTorsions>
[ 6907 6896 6895 6894 ] final  171.01 input  -60.11 | X-H torsion
[ 7974 7965 7964 7962 ] final -111.12 input  175.53 | X-H torsion
[ 8008 7997 7996 7995 ] final -143.03 input   59.86 | X-H torsion
[ 10167 10162 10161 10158 ] final  120.73 input  -65.29 | X-H torsion
[ 10718 10713 10712 10709 ] final  -63.32 input   66.30 | X-H torsion
[ 10763 10752 10751 10750 ] final -102.35 input  -60.55 | X-H torsion
[ 11005 11000 10999 10996 ] final  155.40 input  -57.11 | X-H torsion

> <Gold.Protein.ActiveResidues>
 VAL166  LYS551  ARG553  GLY616  TRP617  ASP618  TYR619  PRO620  LYS621  CYS622 
 ASP623  PHE694  ASN695  SER759  ASP760  ASP761  ALA762  ILE779  LEU786  VAL792 
 PHE793  MET794  SER795  GLU796  ALA797  LYS798  CYS799  TRP800  GLU811  SER814 

> <Gold.Protein.RotatedAtoms>
  151.8070  133.3377  159.3543 H   0  0  0  0  0  0  0  0  0  0  0  0  # atno 6907 bound_to 6896
  150.7339  134.5699  159.5894 H   0  0  0  0  0  0  0  0  0  0  0  0  # atno 6908 bound_to 6896
  152.3102  134.7508  160.0389 H   0  0  0  0  0  0  0  0  0  0  0  0  # atno 6909 bound_to 6896
  145.1599  140.8873  143.3597 H   0  0  0  0  0  0  0  0  0  0  0  0  # atno 7974 bound_to 7965
  155.5040  140.0578  157.2934 H   0  0  0  0  0  0  0  0  0  0  0  0  # atno 8008 bound_to 7997
  154.4576  140.1981  156.0283 H   0  0  0  0  0  0  0  0  0  0  0  0  # atno 8009 bound_to 7997
  156.0830  140.3244  155.7722 H   0  0  0  0  0  0  0  0  0  0  0  0  # atno 8010 bound_to 7997
  139.5963  144.7043  151.3168 H   0  0  0  0  0  0  0  0  0  0  0  0  # atno 10167 bound_to 10162
  156.0799  130.4219  150.1260 H   0  0  0  0  0  0  0  0  0  0  0  0  # atno 10718 bound_to 10713
  154.7727  135.4864  153.9682 H   0  0  0  0  0  0  0  0  0  0  0  0  # atno 10763 bound_to 10752
  153.1389  135.6768  153.9066 H   0  0  0  0  0  0  0  0  0  0  0  0  # atno 10764 bound_to 10752
  153.8747  135.3139  155.3422 H   0  0  0  0  0  0  0  0  0  0  0  0  # atno 10765 bound_to 10752
  140.1578  134.8630  157.2536 H   0  0  0  0  0  0  0  0  0  0  0  0  # atno 11005 bound_to 11000
  145.0342  139.3315  143.6009 LP  0  0  0  0  0  0  0  0  0  0  0  0  # atno 17320 bound_to 7965
  146.3484  139.9691  142.8708 LP  0  0  0  0  0  0  0  0  0  0  0  0  # atno 17321 bound_to 7965
  140.7215  143.7123  150.7759 LP  0  0  0  0  0  0  0  0  0  0  0  0  # atno 17342 bound_to 10162
  140.0690  143.5079  152.2589 LP  0  0  0  0  0  0  0  0  0  0  0  0  # atno 17343 bound_to 10162
  156.9293  130.9708  151.3535 LP  0  0  0  0  0  0  0  0  0  0  0  0  # atno 17370 bound_to 10713
  157.5911  130.8444  149.8660 LP  0  0  0  0  0  0  0  0  0  0  0  0  # atno 17371 bound_to 10713
  140.2526  134.3665  155.7436 LP  0  0  0  0  0  0  0  0  0  0  0  0  # atno 17394 bound_to 11000
  141.2206  133.7325  156.8958 LP  0  0  0  0  0  0  0  0  0  0  0  0  # atno 17395 bound_to 11000

$$$$
