AV-unprocessed.smi:1776|AV-procd|sdf|7176|dock8
  -GOLD-   22720 8413D 1   1.00000     0.00000
 Structure written by MMmdl.
 30 31  0  0  0  0  0  0  0  0  2 V2000
  151.6863  139.9937  154.9028 O   0  0  0  0  0  0  0  0  0  0  0  0
  150.5293  140.1408  155.2966 C   0  0  0  0  0  0  0  0  0  0  0  0
  150.1739  140.6488  156.4939 N   0  0  0  0  0  0  0  0  0  0  0  0
  150.9658  141.1256  157.5542 C   0  0  0  0  0  0  0  0  0  0  0  0
  150.8942  142.3759  158.0910 C   0  0  0  0  0  0  0  0  0  0  0  0
  151.7438  142.8010  159.1966 C   0  0  0  0  0  0  0  0  0  0  0  0
  151.7555  144.2128  159.7559 C   0  0  0  0  0  0  0  0  0  0  0  0
  150.5255  144.6104  160.0827 F   0  0  0  0  0  0  0  0  0  0  0  0
  152.5248  144.2901  160.8419 F   0  0  0  0  0  0  0  0  0  0  0  0
  152.2369  145.0574  158.8450 F   0  0  0  0  0  0  0  0  0  0  0  0
  152.6120  141.8066  159.6032 C   0  0  0  0  0  0  0  0  0  0  0  0
  152.7321  140.5422  159.1436 N   0  5  0  0  0  0  0  0  0  0  0  0
  151.9306  140.1543  158.1118 C   0  0  0  0  0  0  0  0  0  0  0  0
  151.9941  139.0180  157.6408 O   0  0  0  0  0  0  0  0  0  0  0  0
  149.3562  139.7427  154.3882 C   0  0  1  0  0  0  0  0  0  0  0  0
  148.5246  138.5631  154.9450 C   0  0  0  0  0  0  0  0  0  0  0  0
  147.4423  138.2923  154.0632 O   0  0  0  0  0  0  0  0  0  0  0  0
  146.5944  139.4236  153.9220 C   0  0  0  0  0  0  0  0  0  0  0  0
  147.4145  140.5940  153.3564 C   0  0  0  0  0  0  0  0  0  0  0  0
  148.4951  140.8689  154.2371 O   0  0  0  0  0  0  0  0  0  0  0  0
  149.1812  140.6823  156.6775 H   0  0  0  0  0  0  0  0  0  0  0  0
  150.1922  143.1038  157.7224 H   0  0  0  0  0  0  0  0  0  0  0  0
  153.3201  142.0681  160.4181 H   0  0  0  0  0  0  0  0  0  0  0  0
  149.7704  139.4726  153.4150 H   0  0  0  0  0  0  0  0  0  0  0  0
  149.1357  137.6634  155.0232 H   0  0  0  0  0  0  0  0  0  0  0  0
  148.1441  138.7825  155.9443 H   0  0  0  0  0  0  0  0  0  0  0  0
  145.7751  139.1733  153.2480 H   0  0  0  0  0  0  0  0  0  0  0  0
  146.1515  139.6873  154.8836 H   0  0  0  0  0  0  0  0  0  0  0  0
  147.7902  140.3614  152.3587 H   0  0  0  0  0  0  0  0  0  0  0  0
  146.7929  141.4849  153.2670 H   0  0  0  0  0  0  0  0  0  0  0  0
  1  2  2  0  0  0  0
  2  3  1  0  0  0  0
  2 15  1  0  0  0  0
  3  4  1  0  0  0  0
  3 21  1  0  0  0  0
  4 13  1  0  0  0  0
  4  5  2  0  0  0  0
  5  6  1  0  0  0  0
  5 22  1  0  0  0  0
  6  7  1  0  0  0  0
  6 11  2  0  0  0  0
  7  8  1  0  0  0  0
  7  9  1  0  0  0  0
  7 10  1  0  0  0  0
 11 12  1  0  0  0  0
 11 23  1  0  0  0  0
 12 13  1  0  0  0  0
 13 14  2  0  0  0  0
 15 20  1  0  0  0  0
 15 16  1  0  0  0  0
 15 24  1  0  0  0  0
 16 17  1  0  0  0  0
 16 25  1  0  0  0  0
 16 26  1  0  0  0  0
 17 18  1  0  0  0  0
 18 19  1  0  0  0  0
 18 27  1  0  0  0  0
 18 28  1  0  0  0  0
 19 20  1  0  0  0  0
 19 29  1  0  0  0  0
 19 30  1  0  0  0  0
M  CHG  1  12  -1
M  END
> <s_m_source_file>
AV-unprocessed.smi

> <i_m_source_file_index>
1776

> <i_lp_mmshare_version>
43012

> <i_f3d_flags>
0

> <s_epik_input>
TzFbQ0gyXVtDSDJdT1tDSDJdW0NASF0xQyg9TylbTkhdYzJbY0hdYyhDKEYpKEYpRilbY0hdW25IXWMyPU8=

> <s_epik_cmdline>
J2VwaWtfcHl0aG9uJywgJy1waCcsICc3LjAnLCAnLXRuJywgJzgnLCAnLW1hJywgJzIwMCcsICctbWV0YWxfYmluZGluZycsICctaW1hZScsICc8aW5maWxlLm1hZT4nLCAnLW9tYWUnLCAnPG91dGZpbGUubWFlPic=

> <r_epik_Ionization_Penalty>
2.46925

> <r_epik_Ionization_Penalty_Charging>
0.0509887

> <r_epik_Ionization_Penalty_Neutral>
2.41826

> <r_epik_State_Penalty>
2.57741

> <r_epik_Charging_Adjusted_Penalty>
2.6284

> <i_epik_Tot_Q>
-1

> <i_epik_Tot_abs_Q>
1

> <r_epik_Metal_State_Penalty>
0.510263

> <b_epik_Metal_Only>
0

> <s_lp_Force_Field>
OPLS_2005

> <r_lp_Energy>
25.1464

> <b_lp_Chiralities_Consistent>
1

> <s_lp_Variant>
AV-unprocessed.smi:1776-4

> <Gold.Version>
5.8.1

> <Gold.Id.Protein>
6NUR|6NUR_protein|mol2

> <Gold.PLP.Fitness>
37.5607

> <Gold.PLP.PLP>
-36.2211

> <Gold.PLP.part.hbond>
-1.0000

> <Gold.PLP.part.metal>
0.0000

> <Gold.PLP.part.buried>
-6.1704

> <Gold.PLP.part.nonpolar>
-29.2436

> <Gold.PLP.part.repulsive>
0.3777

> <Gold.PLP.ligand.clash>
0.0000

> <Gold.PLP.ligand.torsion>
0.8546

> <Gold.PLP.Chemscore.Hbond>
1.0000

> <Gold.PLP.Chemscore.CHOScore>
0.0000

> <Gold.PLP.Chemscore.Metal>
0.0000

> <Gold.Chemscore.Hbonds>
donor molecule, donor type, donor heavy atom, donor atom, acceptor molecule, acceptor atom, score
      P1  H  7989  7998       L1     1  1.00

> <Gold.PLP.Chemscore.Internal.Correction>
0.0488

> <Gold.Rescore>
     Score         DG    S(hbond)    S(metal)    S(lipo)     H(rot)  DE(clash)    DE(int)     intcor
     12.08     -13.08       0.91        0.00      60.70       1.00       0.02       0.98       ----

> <Gold.Chemscore.Fitness>
12.0839

> <Gold.Chemscore.DG>
-13.0772

> <Gold.Chemscore.ZeroCoef>
-5.4800

> <Gold.Chemscore.Hbond>
0.9149

> <Gold.Chemscore.Metal>
0.0000

> <Gold.Chemscore.Lipo>
60.6954

> <Gold.Chemscore.Internal_Hbond>
0.0000

> <Gold.Chemscore.DEClash>
0.0164

> <Gold.Chemscore.DEInternal>
0.9769

> <Gold.Chemscore.Rot>
1.0000

> <Gold.Chemscore.Internal.Correction>
   9.000000E+99

> <Gold.Chemscore.Hbonds>
donor molecule, donor type, donor heavy atom, donor atom, acceptor molecule, acceptor atom, score
      P1  H  7989  7998       L1     1  0.29

> <Gold.Chemscore.Hbond.Weighted>
-3.0558

> <Gold.Chemscore.Metal.Weighted>
-0.0000

> <Gold.Chemscore.Lipo.Weighted>
-7.1014

> <Gold.Chemscore.Internal_Hbond.Weighted>
0.0000

> <Gold.Chemscore.DEClash.Weighted>
0.0164

> <Gold.Chemscore.DEInternal.Weighted>
0.9769

> <Gold.Chemscore.Rot.Weighted>
2.5600

> <Gold.Chemscore.Internal.Correction.Weighted>
   9.000000E+99

> <Gold.Protein.RotatedTorsions>
[ 6907 6896 6895 6894 ] final -158.78 input  -60.11 | X-H torsion
[ 7974 7965 7964 7962 ] final   31.79 input  175.53 | X-H torsion
[ 8008 7997 7996 7995 ] final -168.50 input   59.86 | X-H torsion
[ 10167 10162 10161 10158 ] final -138.98 input  -65.29 | X-H torsion
[ 10718 10713 10712 10709 ] final   80.10 input   66.30 | X-H torsion
[ 10763 10752 10751 10750 ] final   54.77 input  -60.55 | X-H torsion
[ 11005 11000 10999 10996 ] final -132.64 input  -57.11 | X-H torsion

> <Gold.Protein.ActiveResidues>
 VAL166  LYS551  ARG553  GLY616  TRP617  ASP618  TYR619  PRO620  LYS621  CYS622 
 ASP623  PHE694  ASN695  SER759  ASP760  ASP761  ALA762  ILE779  LEU786  VAL792 
 PHE793  MET794  SER795  GLU796  ALA797  LYS798  CYS799  TRP800  GLU811  SER814 

> <Gold.Protein.RotatedAtoms>
  151.3234  133.4030  159.2656 H   0  0  0  0  0  0  0  0  0  0  0  0  # atno 6907 bound_to 6896
  151.0015  134.9326  159.7967 H   0  0  0  0  0  0  0  0  0  0  0  0  # atno 6908 bound_to 6896
  152.5276  134.3199  159.9197 H   0  0  0  0  0  0  0  0  0  0  0  0  # atno 6909 bound_to 6896
  146.1528  139.6610  142.9087 H   0  0  0  0  0  0  0  0  0  0  0  0  # atno 7974 bound_to 7965
  155.8922  140.1026  157.1410 H   0  0  0  0  0  0  0  0  0  0  0  0  # atno 8008 bound_to 7997
  154.4016  140.1308  156.4394 H   0  0  0  0  0  0  0  0  0  0  0  0  # atno 8009 bound_to 7997
  155.7520  140.3465  155.5157 H   0  0  0  0  0  0  0  0  0  0  0  0  # atno 8010 bound_to 7997
  139.8425  143.7303  152.2662 H   0  0  0  0  0  0  0  0  0  0  0  0  # atno 10167 bound_to 10162
  157.6796  130.9944  150.2029 H   0  0  0  0  0  0  0  0  0  0  0  0  # atno 10718 bound_to 10713
  152.9808  135.5734  154.4957 H   0  0  0  0  0  0  0  0  0  0  0  0  # atno 10763 bound_to 10752
  154.4485  135.2778  155.1800 H   0  0  0  0  0  0  0  0  0  0  0  0  # atno 10764 bound_to 10752
  154.3438  135.6224  153.5663 H   0  0  0  0  0  0  0  0  0  0  0  0  # atno 10765 bound_to 10752
  140.9152  134.1516  157.4358 H   0  0  0  0  0  0  0  0  0  0  0  0  # atno 11005 bound_to 11000
  145.4782  141.0437  143.2660 LP  0  0  0  0  0  0  0  0  0  0  0  0  # atno 17320 bound_to 7965
  144.7925  139.6300  143.7107 LP  0  0  0  0  0  0  0  0  0  0  0  0  # atno 17321 bound_to 7965
  139.7545  144.7525  151.0456 LP  0  0  0  0  0  0  0  0  0  0  0  0  # atno 17342 bound_to 10162
  140.7796  143.4822  151.0004 LP  0  0  0  0  0  0  0  0  0  0  0  0  # atno 17343 bound_to 10162
  156.2716  130.3722  149.8025 LP  0  0  0  0  0  0  0  0  0  0  0  0  # atno 17370 bound_to 10713
  156.5740  130.8437  151.3364 LP  0  0  0  0  0  0  0  0  0  0  0  0  # atno 17371 bound_to 10713
  139.8764  134.9951  156.5725 LP  0  0  0  0  0  0  0  0  0  0  0  0  # atno 17394 bound_to 11000
  140.8059  133.8467  155.8767 LP  0  0  0  0  0  0  0  0  0  0  0  0  # atno 17395 bound_to 11000

$$$$
