AV-unprocessed.smi:671|AV-procd|sdf|3275|dock1
  -GOLD-   22720 0233D 1   1.00000     0.00000
 Structure written by MMmdl.
 49 50  0  0  0  0  0  0  0  0  1 V2000
  152.7769  137.9728  155.8099 C   0  0  0  0  0  0  0  0  0  0  0  0
  151.9249  139.1785  156.0872 C   0  0  0  0  0  0  0  0  0  0  0  0
  152.2929  140.0146  157.0432 N   0  0  0  0  0  0  0  0  0  0  0  0
  151.3441  140.9718  157.0478 N   0  0  0  0  0  0  0  0  0  0  0  0
  151.4433  142.0671  157.9930 C   0  0  0  0  0  0  0  0  0  0  0  0
  150.3727  140.7393  156.0939 C   0  0  0  0  0  0  0  0  0  0  0  0
  149.2146  141.6649  155.9017 C   0  0  0  0  0  0  0  0  0  0  0  0
  150.7156  139.5816  155.4467 C   0  0  0  0  0  0  0  0  0  0  0  0
  150.0006  138.8796  154.3194 C   0  0  0  0  0  0  0  0  0  0  0  0
  148.4953  138.6991  154.5957 C   0  0  2  0  0  0  0  0  0  0  0  0
  148.1973  138.3207  156.0582 C   0  0  0  0  0  0  0  0  0  0  0  0
  147.9667  137.6711  153.6954 N   0  0  0  0  0  0  0  0  0  0  0  0
  146.6952  137.2519  153.5611 C   0  0  0  0  0  0  0  0  0  0  0  0
  145.7824  137.7297  154.2319 O   0  0  0  0  0  0  0  0  0  0  0  0
  146.5203  136.2858  152.6441 N   0  0  0  0  0  0  0  0  0  0  0  0
  145.2646  135.6038  152.3326 C   0  0  1  0  0  0  0  0  0  0  0  0
  144.7310  136.0701  150.9621 C   0  0  0  0  0  0  0  0  0  0  0  0
  144.6259  134.8185  150.0839 C   0  0  0  0  0  0  0  0  0  0  0  0
  145.5857  133.8134  150.7135 C   0  0  0  0  0  0  0  0  0  0  0  0
  145.4520  134.0729  152.2146 C   0  0  1  0  0  0  0  0  0  0  0  0
  146.5794  133.4465  153.0553 C   0  0  0  0  0  0  0  0  0  0  0  0
  152.4792  137.4732  154.8883 H   0  0  0  0  0  0  0  0  0  0  0  0
  152.6992  137.2461  156.6187 H   0  0  0  0  0  0  0  0  0  0  0  0
  153.8270  138.2481  155.7085 H   0  0  0  0  0  0  0  0  0  0  0  0
  151.4423  143.0161  157.4567 H   0  0  0  0  0  0  0  0  0  0  0  0
  152.3628  141.9933  158.5752 H   0  0  0  0  0  0  0  0  0  0  0  0
  150.5921  142.0408  158.6737 H   0  0  0  0  0  0  0  0  0  0  0  0
  148.5439  141.3082  155.1209 H   0  0  0  0  0  0  0  0  0  0  0  0
  149.5584  142.6587  155.6150 H   0  0  0  0  0  0  0  0  0  0  0  0
  148.6369  141.7583  156.8215 H   0  0  0  0  0  0  0  0  0  0  0  0
  150.1246  139.4475  153.3965 H   0  0  0  0  0  0  0  0  0  0  0  0
  150.4515  137.9081  154.1153 H   0  0  0  0  0  0  0  0  0  0  0  0
  148.0111  139.6525  154.3779 H   0  0  0  0  0  0  0  0  0  0  0  0
  148.5273  139.0986  156.7466 H   0  0  0  0  0  0  0  0  0  0  0  0
  148.7003  137.3942  156.3371 H   0  0  0  0  0  0  0  0  0  0  0  0
  147.1286  138.1802  156.2225 H   0  0  0  0  0  0  0  0  0  0  0  0
  148.6408  137.2522  153.0708 H   0  0  0  0  0  0  0  0  0  0  0  0
  147.3359  135.9716  152.1390 H   0  0  0  0  0  0  0  0  0  0  0  0
  144.5197  135.8093  153.1033 H   0  0  0  0  0  0  0  0  0  0  0  0
  143.7650  136.5677  151.0539 H   0  0  0  0  0  0  0  0  0  0  0  0
  145.4127  136.7856  150.4986 H   0  0  0  0  0  0  0  0  0  0  0  0
  143.6091  134.4260  150.1272 H   0  0  0  0  0  0  0  0  0  0  0  0
  144.8576  135.0199  149.0378 H   0  0  0  0  0  0  0  0  0  0  0  0
  145.3495  132.7838  150.4430 H   0  0  0  0  0  0  0  0  0  0  0  0
  146.6048  134.0214  150.3843 H   0  0  0  0  0  0  0  0  0  0  0  0
  144.5152  133.6135  152.5346 H   0  0  0  0  0  0  0  0  0  0  0  0
  147.5632  133.8014  152.7468 H   0  0  0  0  0  0  0  0  0  0  0  0
  146.5786  132.3611  152.9548 H   0  0  0  0  0  0  0  0  0  0  0  0
  146.4536  133.6802  154.1127 H   0  0  0  0  0  0  0  0  0  0  0  0
  1  2  1  0  0  0  0
  1 22  1  0  0  0  0
  1 23  1  0  0  0  0
  1 24  1  0  0  0  0
  2  8  1  0  0  0  0
  2  3  2  0  0  0  0
  3  4  1  0  0  0  0
  4  5  1  0  0  0  0
  4  6  1  0  0  0  0
  5 25  1  0  0  0  0
  5 26  1  0  0  0  0
  5 27  1  0  0  0  0
  6  7  1  0  0  0  0
  6  8  2  0  0  0  0
  7 28  1  0  0  0  0
  7 29  1  0  0  0  0
  7 30  1  0  0  0  0
  8  9  1  0  0  0  0
  9 10  1  0  0  0  0
  9 31  1  0  0  0  0
  9 32  1  0  0  0  0
 10 11  1  0  0  0  0
 10 12  1  0  0  0  0
 10 33  1  0  0  0  0
 11 34  1  0  0  0  0
 11 35  1  0  0  0  0
 11 36  1  0  0  0  0
 12 13  1  0  0  0  0
 12 37  1  0  0  0  0
 13 14  2  0  0  0  0
 13 15  1  0  0  0  0
 15 16  1  0  0  0  0
 15 38  1  0  0  0  0
 16 20  1  0  0  0  0
 16 17  1  0  0  0  0
 16 39  1  0  0  0  0
 17 18  1  0  0  0  0
 17 40  1  0  0  0  0
 17 41  1  0  0  0  0
 18 19  1  0  0  0  0
 18 42  1  0  0  0  0
 18 43  1  0  0  0  0
 19 20  1  0  0  0  0
 19 44  1  0  0  0  0
 19 45  1  0  0  0  0
 20 21  1  0  0  0  0
 20 46  1  0  0  0  0
 21 47  1  0  0  0  0
 21 48  1  0  0  0  0
 21 49  1  0  0  0  0
M  END
> <s_m_source_file>
AV-unprocessed.smi

> <i_m_source_file_index>
671

> <i_lp_mmshare_version>
43012

> <i_f3d_flags>
0

> <s_epik_input>
W0NIM11jMW5uKFtDSDNdKWMoW0NIM10pYzFbQ0gyXVtDQEhdKFtDSDNdKVtOSF1DKD1PKVtOSF1bQ0BASF0yW0NIMl1bQ0gyXVtDSDJdW0NASF0yW0NIM10=

> <s_epik_cmdline>
J2VwaWtfcHl0aG9uJywgJy1waCcsICc3LjAnLCAnLXRuJywgJzgnLCAnLW1hJywgJzIwMCcsICctbWV0YWxfYmluZGluZycsICctaW1hZScsICc8aW5maWxlLm1hZT4nLCAnLW9tYWUnLCAnPG91dGZpbGUubWFlPic=

> <r_lp_tautomer_probability>
1

> <r_epik_Ionization_Penalty>
0.0126855

> <r_epik_Ionization_Penalty_Charging>
0

> <r_epik_Ionization_Penalty_Neutral>
0.0126855

> <r_epik_State_Penalty>
0.00977547

> <r_epik_Charging_Adjusted_Penalty>
0.00977547

> <i_epik_Tot_Q>
0

> <i_epik_Tot_abs_Q>
0

> <r_epik_Metal_State_Penalty>
0.00957132

> <b_epik_Metal_Only>
0

> <s_lp_Force_Field>
OPLS_2005

> <r_lp_Energy>
23.5654

> <b_lp_Chiralities_Consistent>
1

> <s_lp_Variant>
AV-unprocessed.smi:671-3

> <Gold.Version>
5.8.1

> <Gold.Id.Protein>
6NUR|6NUR_protein|mol2

> <Gold.PLP.Fitness>
40.0453

> <Gold.PLP.PLP>
-32.0604

> <Gold.PLP.part.hbond>
-3.0000

> <Gold.PLP.part.metal>
0.0000

> <Gold.PLP.part.buried>
-1.4435

> <Gold.PLP.part.nonpolar>
-27.9835

> <Gold.PLP.part.repulsive>
0.0743

> <Gold.PLP.ligand.clash>
0.0000

> <Gold.PLP.ligand.torsion>
0.4475

> <Gold.PLP.Chemscore.Hbond>
2.9360

> <Gold.PLP.Chemscore.CHOScore>
0.0000

> <Gold.PLP.Chemscore.Metal>
0.0000

> <Gold.Chemscore.Hbonds>
donor molecule, donor type, donor heavy atom, donor atom, acceptor molecule, acceptor atom, score
      L1  H    12    37       P1  7948  1.00
      L1  H    15    38       P1  7948  0.93
      P1  H  7997  8010       L1     3  0.74

> <Gold.PLP.Chemscore.Internal.Correction>
0.0719

> <Gold.Rescore>
     Score         DG    S(hbond)    S(metal)    S(lipo)     H(rot)  DE(clash)    DE(int)     intcor
     19.94     -20.52       2.80        0.00      80.39       1.45       0.12       0.45       ----

> <Gold.Chemscore.Fitness>
19.9414

> <Gold.Chemscore.DG>
-20.5156

> <Gold.Chemscore.ZeroCoef>
-5.4800

> <Gold.Chemscore.Hbond>
2.7968

> <Gold.Chemscore.Metal>
0.0000

> <Gold.Chemscore.Lipo>
80.3949

> <Gold.Chemscore.Internal_Hbond>
0.0000

> <Gold.Chemscore.DEClash>
0.1197

> <Gold.Chemscore.DEInternal>
0.4546

> <Gold.Chemscore.Rot>
1.4499

> <Gold.Chemscore.Internal.Correction>
   9.000000E+99

> <Gold.Chemscore.Hbonds>
donor molecule, donor type, donor heavy atom, donor atom, acceptor molecule, acceptor atom, score
      L1  H    12    37       P1  7948  0.93
      L1  H    15    38       P1  7948  0.91
      P1  H  7997  8010       L1     3  0.16

> <Gold.Chemscore.Hbond.Weighted>
-9.3413

> <Gold.Chemscore.Metal.Weighted>
-0.0000

> <Gold.Chemscore.Lipo.Weighted>
-9.4062

> <Gold.Chemscore.Internal_Hbond.Weighted>
0.0000

> <Gold.Chemscore.DEClash.Weighted>
0.1197

> <Gold.Chemscore.DEInternal.Weighted>
0.4546

> <Gold.Chemscore.Rot.Weighted>
3.7118

> <Gold.Chemscore.Internal.Correction.Weighted>
   9.000000E+99

> <Gold.Protein.RotatedTorsions>
[ 6907 6896 6895 6894 ] final  -67.93 input  -60.11 | X-H torsion
[ 7974 7965 7964 7962 ] final -179.78 input  175.53 | X-H torsion
[ 8008 7997 7996 7995 ] final   59.89 input   59.86 | X-H torsion
[ 10167 10162 10161 10158 ] final   67.98 input  -65.29 | X-H torsion
[ 10718 10713 10712 10709 ] final   60.68 input   66.30 | X-H torsion
[ 10763 10752 10751 10750 ] final  131.52 input  -60.55 | X-H torsion
[ 11005 11000 10999 10996 ] final -160.80 input  -57.11 | X-H torsion

> <Gold.Protein.ActiveResidues>
 VAL166  LYS551  ARG553  GLY616  TRP617  ASP618  TYR619  PRO620  LYS621  CYS622 
 ASP623  PHE694  ASN695  SER759  ASP760  ASP761  ALA762  ILE779  LEU786  VAL792 
 PHE793  MET794  SER795  GLU796  ALA797  LYS798  CYS799  TRP800  GLU811  SER814 

> <Gold.Protein.RotatedAtoms>
  150.7383  134.5811  159.5939 H   0  0  0  0  0  0  0  0  0  0  0  0  # atno 6907 bound_to 6896
  152.3225  134.7359  160.0319 H   0  0  0  0  0  0  0  0  0  0  0  0  # atno 6908 bound_to 6896
  151.7871  133.3319  159.3525 H   0  0  0  0  0  0  0  0  0  0  0  0  # atno 6909 bound_to 6896
  144.7139  140.0666  143.6431 H   0  0  0  0  0  0  0  0  0  0  0  0  # atno 7974 bound_to 7965
  155.5735  140.3490  155.4521 H   0  0  0  0  0  0  0  0  0  0  0  0  # atno 8008 bound_to 7997
  156.0427  140.1299  157.0163 H   0  0  0  0  0  0  0  0  0  0  0  0  # atno 8009 bound_to 7997
  154.4399  140.1021  156.6246 H   0  0  0  0  0  0  0  0  0  0  0  0  # atno 8010 bound_to 7997
  140.0837  144.5049  150.7145 H   0  0  0  0  0  0  0  0  0  0  0  0  # atno 10167 bound_to 10162
  157.5771  130.8952  149.9366 H   0  0  0  0  0  0  0  0  0  0  0  0  # atno 10718 bound_to 10713
  153.7757  135.3175  155.3358 H   0  0  0  0  0  0  0  0  0  0  0  0  # atno 10763 bound_to 10752
  154.8180  135.4623  154.0700 H   0  0  0  0  0  0  0  0  0  0  0  0  # atno 10764 bound_to 10752
  153.1974  135.6917  153.8360 H   0  0  0  0  0  0  0  0  0  0  0  0  # atno 10765 bound_to 10752
  140.6275  134.4686  157.5227 H   0  0  0  0  0  0  0  0  0  0  0  0  # atno 11005 bound_to 11000
  145.9819  139.2947  143.1037 LP  0  0  0  0  0  0  0  0  0  0  0  0  # atno 17320 bound_to 7965
  145.9001  140.9248  143.0507 LP  0  0  0  0  0  0  0  0  0  0  0  0  # atno 17321 bound_to 7965
  140.7065  143.2472  151.4711 LP  0  0  0  0  0  0  0  0  0  0  0  0  # atno 17342 bound_to 10162
  139.5765  144.1808  152.1910 LP  0  0  0  0  0  0  0  0  0  0  0  0  # atno 17343 bound_to 10162
  156.0816  130.3672  150.0569 LP  0  0  0  0  0  0  0  0  0  0  0  0  # atno 17370 bound_to 10713
  156.8714  130.9525  151.3609 LP  0  0  0  0  0  0  0  0  0  0  0  0  # atno 17371 bound_to 10713
  139.9129  134.8307  156.1465 LP  0  0  0  0  0  0  0  0  0  0  0  0  # atno 17394 bound_to 11000
  141.0699  133.6801  156.2120 LP  0  0  0  0  0  0  0  0  0  0  0  0  # atno 17395 bound_to 11000

$$$$
