AV-unprocessed.smi:2424|AV-procd|sdf|9562|dock2
  -GOLD-   2272013193D 1   1.00000     0.00000
 Structure written by MMmdl.
 50 51  0  0  0  0  0  0  0  0  1 V2000
  150.0105  139.0258  157.4931 C   0  0  0  0  0  0  0  0  0  0  0  0
  148.6508  138.6258  156.8928 C   0  0  0  0  0  0  0  0  0  0  0  0
  148.6578  138.1995  155.3952 C   0  0  0  0  0  0  0  0  0  0  0  0
  149.5795  136.9651  155.2517 C   0  0  0  0  0  0  0  0  0  0  0  0
  151.0877  137.2513  155.3029 C   0  0  0  0  0  0  0  0  0  0  0  0
  147.2700  138.1711  154.6820 C   0  0  2  0  0  0  0  0  0  0  0  0
  147.2330  137.2725  153.5239 N   0  0  0  0  0  0  0  0  0  0  0  0
  146.1857  136.5207  153.1607 C   0  0  0  0  0  0  0  0  0  0  0  0
  145.1187  136.5059  153.7734 O   0  0  0  0  0  0  0  0  0  0  0  0
  146.4718  135.8113  152.0533 N   0  0  0  0  0  0  0  0  0  0  0  0
  145.6735  134.8946  151.3539 C   0  0  0  0  0  0  0  0  0  0  0  0
  144.5892  135.2043  150.6111 C   0  0  0  0  0  0  0  0  0  0  0  0
  143.8545  134.2142  149.9531 N   0  0  0  0  0  0  0  0  0  0  0  0
  144.1435  132.8936  149.9956 C   0  0  0  0  0  0  0  0  0  0  0  0
  143.4463  132.0825  149.3892 O   0  0  0  0  0  0  0  0  0  0  0  0
  145.3204  132.5302  150.8009 C   0  0  0  0  0  0  0  0  0  0  0  0
  145.7054  131.0643  150.8873 C   0  0  0  0  0  0  0  0  0  0  0  0
  146.0297  133.4907  151.4361 C   0  0  0  0  0  0  0  0  0  0  0  0
  147.4889  139.6382  154.2653 C   0  0  2  0  0  0  0  0  0  0  0  0
  146.9181  140.1610  152.9491 C   0  0  0  0  0  0  0  0  0  0  0  0
  148.9912  139.3411  154.3958 C   0  0  1  0  0  0  0  0  0  0  0  0
  149.7828  140.3779  154.9577 O   0  0  0  0  0  0  0  0  0  0  0  0
  149.2908  141.6750  154.6715 C   0  0  0  0  0  0  0  0  0  0  0  0
  143.0576  134.5191  149.4133 H   0  0  0  0  0  0  0  0  0  0  0  0
  149.8726  139.4828  158.4731 H   0  0  0  0  0  0  0  0  0  0  0  0
  150.5519  139.7374  156.8726 H   0  0  0  0  0  0  0  0  0  0  0  0
  150.6514  138.1567  157.6399 H   0  0  0  0  0  0  0  0  0  0  0  0
  148.2638  137.8247  157.5220 H   0  0  0  0  0  0  0  0  0  0  0  0
  147.9539  139.4500  157.0478 H   0  0  0  0  0  0  0  0  0  0  0  0
  149.3569  136.2438  156.0385 H   0  0  0  0  0  0  0  0  0  0  0  0
  149.3533  136.4313  154.3280 H   0  0  0  0  0  0  0  0  0  0  0  0
  151.6502  136.3194  155.3640 H   0  0  0  0  0  0  0  0  0  0  0  0
  151.3551  137.8551  156.1701 H   0  0  0  0  0  0  0  0  0  0  0  0
  151.4276  137.7677  154.4062 H   0  0  0  0  0  0  0  0  0  0  0  0
  146.4171  138.0528  155.3486 H   0  0  0  0  0  0  0  0  0  0  0  0
  148.0705  137.2222  152.9632 H   0  0  0  0  0  0  0  0  0  0  0  0
  147.3900  135.9543  151.6596 H   0  0  0  0  0  0  0  0  0  0  0  0
  144.1864  136.1920  150.4533 H   0  0  0  0  0  0  0  0  0  0  0  0
  146.5822  130.9196  151.5191 H   0  0  0  0  0  0  0  0  0  0  0  0
  145.9361  130.6732  149.8959 H   0  0  0  0  0  0  0  0  0  0  0  0
  144.8868  130.4785  151.3069 H   0  0  0  0  0  0  0  0  0  0  0  0
  146.8919  133.2060  152.0218 H   0  0  0  0  0  0  0  0  0  0  0  0
  147.1722  140.2787  155.0907 H   0  0  0  0  0  0  0  0  0  0  0  0
  147.3743  139.6722  152.0881 H   0  0  0  0  0  0  0  0  0  0  0  0
  147.0840  141.2325  152.8423 H   0  0  0  0  0  0  0  0  0  0  0  0
  145.8427  139.9913  152.8937 H   0  0  0  0  0  0  0  0  0  0  0  0
  149.4198  138.9590  153.4662 H   0  0  0  0  0  0  0  0  0  0  0  0
  149.9665  142.4211  155.0896 H   0  0  0  0  0  0  0  0  0  0  0  0
  148.3068  141.8332  155.1118 H   0  0  0  0  0  0  0  0  0  0  0  0
  149.2263  141.8453  153.5960 H   0  0  0  0  0  0  0  0  0  0  0  0
  1  2  1  0  0  0  0
  1 25  1  0  0  0  0
  1 26  1  0  0  0  0
  1 27  1  0  0  0  0
  2  3  1  0  0  0  0
  2 28  1  0  0  0  0
  2 29  1  0  0  0  0
  3 21  1  0  0  0  0
  3  4  1  0  0  0  0
  3  6  1  0  0  0  0
  4  5  1  0  0  0  0
  4 30  1  0  0  0  0
  4 31  1  0  0  0  0
  5 32  1  0  0  0  0
  5 33  1  0  0  0  0
  5 34  1  0  0  0  0
  6  7  1  0  0  0  0
  6 19  1  0  0  0  0
  6 35  1  0  0  0  0
  7  8  1  0  0  0  0
  7 36  1  0  0  0  0
  8  9  2  0  0  0  0
  8 10  1  0  0  0  0
 10 11  1  0  0  0  0
 10 37  1  0  0  0  0
 11 18  1  0  0  0  0
 11 12  2  0  0  0  0
 12 13  1  0  0  0  0
 12 38  1  0  0  0  0
 13 24  1  0  0  0  0
 13 14  1  0  0  0  0
 14 15  2  0  0  0  0
 14 16  1  0  0  0  0
 16 17  1  0  0  0  0
 16 18  2  0  0  0  0
 17 39  1  0  0  0  0
 17 40  1  0  0  0  0
 17 41  1  0  0  0  0
 18 42  1  0  0  0  0
 19 20  1  0  0  0  0
 19 21  1  0  0  0  0
 19 43  1  0  0  0  0
 20 44  1  0  0  0  0
 20 45  1  0  0  0  0
 20 46  1  0  0  0  0
 21 22  1  0  0  0  0
 21 47  1  0  0  0  0
 22 23  1  0  0  0  0
 23 48  1  0  0  0  0
 23 49  1  0  0  0  0
 23 50  1  0  0  0  0
M  END
> <s_m_source_file>
AV-unprocessed.smi

> <i_m_source_file_index>
2424

> <i_lp_mmshare_version>
43012

> <i_f3d_flags>
0

> <s_epik_input>
W0NIM11PW0NAQEhdMVtDQEhdKFtDSDNdKVtDQEBIXShDMShbQ0gyXVtDSDNdKVtDSDJdW0NIM10pW05IXUMoPU8pW05IXWMyW2NIXVtuSF1jKD1PKWMoW0NIM10pW2NIXTI=

> <s_epik_cmdline>
J2VwaWtfcHl0aG9uJywgJy1waCcsICc3LjAnLCAnLXRuJywgJzgnLCAnLW1hJywgJzIwMCcsICctbWV0YWxfYmluZGluZycsICctaW1hZScsICc8aW5maWxlLm1hZT4nLCAnLW9tYWUnLCAnPG91dGZpbGUubWFlPic=

> <r_lp_tautomer_probability>
1

> <r_epik_Ionization_Penalty>
4.7326e-05

> <r_epik_Ionization_Penalty_Charging>
2.70169e-05

> <r_epik_Ionization_Penalty_Neutral>
2.0309e-05

> <r_epik_State_Penalty>
-0

> <r_epik_Charging_Adjusted_Penalty>
2.70169e-05

> <i_epik_Tot_Q>
0

> <i_epik_Tot_abs_Q>
0

> <r_epik_Metal_State_Penalty>
0.0198736

> <b_epik_Metal_Only>
0

> <s_lp_Force_Field>
OPLS_2005

> <r_lp_Energy>
37.9094

> <b_lp_Chiralities_Consistent>
1

> <s_lp_Variant>
AV-unprocessed.smi:2424-4

> <Gold.Version>
5.8.1

> <Gold.Id.Protein>
6NUR|6NUR_protein|mol2

> <Gold.PLP.Fitness>
44.2547

> <Gold.PLP.PLP>
-32.6651

> <Gold.PLP.part.hbond>
-4.0999

> <Gold.PLP.part.metal>
0.0000

> <Gold.PLP.part.buried>
-3.6595

> <Gold.PLP.part.nonpolar>
-26.0990

> <Gold.PLP.part.repulsive>
0.5107

> <Gold.PLP.ligand.clash>
0.0124

> <Gold.PLP.ligand.torsion>
1.6847

> <Gold.PLP.Chemscore.Hbond>
3.7857

> <Gold.PLP.Chemscore.CHOScore>
0.9999

> <Gold.PLP.Chemscore.Metal>
0.0000

> <Gold.Chemscore.Hbonds>
donor molecule, donor type, donor heavy atom, donor atom, acceptor molecule, acceptor atom, score
      L1  H     7    36       P1  7948  0.90
      L1  H    10    37       P1  7948  1.00
      L1  H    13    24       P1 10186  0.74
      P1  H  7989  7998       L1    22  0.03
      P1  H 10785 10796       L1    15  0.93
      L1  C    12    38       P1 10171  1.00

> <Gold.PLP.Chemscore.Internal.Correction>
0.6147

> <Gold.Rescore>
     Score         DG    S(hbond)    S(metal)    S(lipo)     H(rot)  DE(clash)    DE(int)     intcor
     20.89     -23.67       3.78        0.00      81.61       1.55       0.72       2.06       ----

> <Gold.Chemscore.Fitness>
20.8867

> <Gold.Chemscore.DG>
-23.6729

> <Gold.Chemscore.ZeroCoef>
-5.4800

> <Gold.Chemscore.Hbond>
3.7765

> <Gold.Chemscore.Metal>
0.0000

> <Gold.Chemscore.Lipo>
81.6060

> <Gold.Chemscore.Internal_Hbond>
0.0000

> <Gold.Chemscore.DEClash>
0.7223

> <Gold.Chemscore.DEInternal>
2.0640

> <Gold.Chemscore.Rot>
1.5502

> <Gold.Chemscore.Internal.Correction>
   9.000000E+99

> <Gold.Chemscore.Hbonds>
donor molecule, donor type, donor heavy atom, donor atom, acceptor molecule, acceptor atom, score
      L1  H     7    36       P1  7948  0.88
      L1  H    10    37       P1  7948  0.93
      L1  H    13    24       P1 10186  0.68
      P1  H 10785 10796       L1    15  0.84

> <Gold.Chemscore.Hbond.Weighted>
-12.6135

> <Gold.Chemscore.Metal.Weighted>
-0.0000

> <Gold.Chemscore.Lipo.Weighted>
-9.5479

> <Gold.Chemscore.Internal_Hbond.Weighted>
0.0000

> <Gold.Chemscore.DEClash.Weighted>
0.7223

> <Gold.Chemscore.DEInternal.Weighted>
2.0640

> <Gold.Chemscore.Rot.Weighted>
3.9685

> <Gold.Chemscore.Internal.Correction.Weighted>
   9.000000E+99

> <Gold.Protein.RotatedTorsions>
[ 6907 6896 6895 6894 ] final   50.53 input  -60.11 | X-H torsion
[ 7974 7965 7964 7962 ] final   19.43 input  175.53 | X-H torsion
[ 8008 7997 7996 7995 ] final  100.08 input   59.86 | X-H torsion
[ 10167 10162 10161 10158 ] final   99.41 input  -65.29 | X-H torsion
[ 10718 10713 10712 10709 ] final -113.04 input   66.30 | X-H torsion
[ 10763 10752 10751 10750 ] final   66.07 input  -60.55 | X-H torsion
[ 11005 11000 10999 10996 ] final -107.65 input  -57.11 | X-H torsion

> <Gold.Protein.ActiveResidues>
 VAL166  LYS551  ARG553  GLY616  TRP617  ASP618  TYR619  PRO620  LYS621  CYS622 
 ASP623  PHE694  ASN695  SER759  ASP760  ASP761  ALA762  ILE779  LEU786  VAL792 
 PHE793  MET794  SER795  GLU796  ALA797  LYS798  CYS799  TRP800  GLU811  SER814 

> <Gold.Protein.RotatedAtoms>
  152.3028  134.7591  160.0353 H   0  0  0  0  0  0  0  0  0  0  0  0  # atno 6907 bound_to 6896
  151.8098  133.3375  159.3560 H   0  0  0  0  0  0  0  0  0  0  0  0  # atno 6908 bound_to 6896
  150.7282  134.5604  159.5884 H   0  0  0  0  0  0  0  0  0  0  0  0  # atno 6909 bound_to 6896
  146.2149  139.8314  142.8659 H   0  0  0  0  0  0  0  0  0  0  0  0  # atno 7974 bound_to 7965
  156.1168  140.3219  155.8150 H   0  0  0  0  0  0  0  0  0  0  0  0  # atno 8008 bound_to 7997
  155.4576  140.0537  157.3011 H   0  0  0  0  0  0  0  0  0  0  0  0  # atno 8009 bound_to 7997
  154.4798  140.2048  155.9804 H   0  0  0  0  0  0  0  0  0  0  0  0  # atno 8010 bound_to 7997
  139.7619  144.6951  151.0279 H   0  0  0  0  0  0  0  0  0  0  0  0  # atno 10167 bound_to 10162
  156.0742  130.5952  150.8589 H   0  0  0  0  0  0  0  0  0  0  0  0  # atno 10718 bound_to 10713
  153.0123  135.5334  154.6766 H   0  0  0  0  0  0  0  0  0  0  0  0  # atno 10763 bound_to 10752
  154.5936  135.2861  155.0611 H   0  0  0  0  0  0  0  0  0  0  0  0  # atno 10764 bound_to 10752
  154.1695  135.6534  153.5058 H   0  0  0  0  0  0  0  0  0  0  0  0  # atno 10765 bound_to 10752
  141.0943  133.9000  157.2002 H   0  0  0  0  0  0  0  0  0  0  0  0  # atno 11005 bound_to 11000
  145.2993  141.0190  143.3618 LP  0  0  0  0  0  0  0  0  0  0  0  0  # atno 17320 bound_to 7965
  144.9018  139.4640  143.6629 LP  0  0  0  0  0  0  0  0  0  0  0  0  # atno 17321 bound_to 7965
  140.7808  143.4687  151.0177 LP  0  0  0  0  0  0  0  0  0  0  0  0  # atno 17342 bound_to 10162
  139.8372  143.7611  152.3180 LP  0  0  0  0  0  0  0  0  0  0  0  0  # atno 17343 bound_to 10162
  157.5829  131.0946  150.9242 LP  0  0  0  0  0  0  0  0  0  0  0  0  # atno 17370 bound_to 10713
  156.9434  130.5393  149.5280 LP  0  0  0  0  0  0  0  0  0  0  0  0  # atno 17371 bound_to 10713
  139.9775  135.0109  156.9668 LP  0  0  0  0  0  0  0  0  0  0  0  0  # atno 17394 bound_to 11000
  140.5178  134.0937  155.7285 LP  0  0  0  0  0  0  0  0  0  0  0  0  # atno 17395 bound_to 11000

$$$$
