AV-unprocessed.smi:2119|AV-procd|sdf|8637|dock9
  -GOLD-   2272011383D 1   1.00000     0.00000
 Structure written by MMmdl.
 48 50  0  0  0  0  0  0  0  0  2 V2000
  144.6484  136.2031  153.0642 O   0  0  0  0  0  0  0  0  0  0  0  0
  145.7812  136.0184  152.6207 C   0  0  0  0  0  0  0  0  0  0  0  0
  146.8149  136.8307  152.8828 N   0  0  0  0  0  0  0  0  0  0  0  0
  146.7542  137.9993  153.7551 C   0  0  0  0  0  0  0  0  0  0  0  0
  148.0511  138.8581  153.7615 C   0  0  1  0  0  0  0  0  0  0  0  0
  147.8917  140.1086  154.6594 C   0  0  1  0  0  0  0  0  0  0  0  0
  147.1550  141.2635  154.0028 C   0  0  0  0  0  0  0  0  0  0  0  0
  146.7454  142.1054  155.2052 C   0  0  0  0  0  0  0  0  0  0  0  0
  146.5001  141.1751  156.2532 O   0  0  0  0  0  0  0  0  0  0  0  0
  147.0229  139.8968  155.9045 C   0  0  0  0  0  0  0  0  0  0  0  0
  149.2876  138.1138  154.1539 N   0  3  0  0  0  0  0  0  0  0  0  0
  150.5365  138.9110  154.2398 C   0  0  0  0  0  0  0  0  0  0  0  0
  151.7426  137.9737  154.4184 C   0  0  0  0  0  0  0  0  0  0  0  0
  151.5521  137.1673  155.5753 O   0  0  0  0  0  0  0  0  0  0  0  0
  150.3978  136.3411  155.4714 C   0  0  0  0  0  0  0  0  0  0  0  0
  149.1438  137.2195  155.3285 C   0  0  0  0  0  0  0  0  0  0  0  0
  146.1436  135.0167  151.8015 N   0  0  0  0  0  0  0  0  0  0  0  0
  145.3537  133.9351  151.3261 C   0  0  0  0  0  0  0  0  0  0  0  0
  143.9522  134.0359  151.4469 C   0  0  0  0  0  0  0  0  0  0  0  0
  143.1441  132.9887  150.9652 C   0  0  0  0  0  0  0  0  0  0  0  0
  143.7723  131.8785  150.3688 C   0  0  0  0  0  0  0  0  0  0  0  0
  145.1105  131.7717  150.2313 N   0  0  0  0  0  0  0  0  0  0  0  0
  145.8800  132.7791  150.6971 C   0  0  0  0  0  0  0  0  0  0  0  0
  147.7115  136.6094  152.4742 H   0  0  0  0  0  0  0  0  0  0  0  0
  145.9024  138.6061  153.4449 H   0  0  0  0  0  0  0  0  0  0  0  0
  146.5143  137.6600  154.7629 H   0  0  0  0  0  0  0  0  0  0  0  0
  148.2075  139.2307  152.7482 H   0  0  0  0  0  0  0  0  0  0  0  0
  148.8717  140.4630  154.9823 H   0  0  0  0  0  0  0  0  0  0  0  0
  147.7694  141.8197  153.2940 H   0  0  0  0  0  0  0  0  0  0  0  0
  146.2676  140.9050  153.4785 H   0  0  0  0  0  0  0  0  0  0  0  0
  147.5630  142.7610  155.5073 H   0  0  0  0  0  0  0  0  0  0  0  0
  145.8697  142.7232  155.0054 H   0  0  0  0  0  0  0  0  0  0  0  0
  146.1835  139.2351  155.6855 H   0  0  0  0  0  0  0  0  0  0  0  0
  147.5829  139.4656  156.7347 H   0  0  0  0  0  0  0  0  0  0  0  0
  150.6665  139.5090  153.3379 H   0  0  0  0  0  0  0  0  0  0  0  0
  150.4877  139.6011  155.0828 H   0  0  0  0  0  0  0  0  0  0  0  0
  151.8804  137.3432  153.5384 H   0  0  0  0  0  0  0  0  0  0  0  0
  152.6564  138.5558  154.5392 H   0  0  0  0  0  0  0  0  0  0  0  0
  150.4972  135.6628  154.6224 H   0  0  0  0  0  0  0  0  0  0  0  0
  150.3234  135.7226  156.3660 H   0  0  0  0  0  0  0  0  0  0  0  0
  149.0054  137.8010  156.2389 H   0  0  0  0  0  0  0  0  0  0  0  0
  148.2645  136.5847  155.2131 H   0  0  0  0  0  0  0  0  0  0  0  0
  147.0885  135.0486  151.4481 H   0  0  0  0  0  0  0  0  0  0  0  0
  143.4988  134.9026  151.9057 H   0  0  0  0  0  0  0  0  0  0  0  0
  142.0683  133.0358  151.0494 H   0  0  0  0  0  0  0  0  0  0  0  0
  143.1839  131.0573  149.9872 H   0  0  0  0  0  0  0  0  0  0  0  0
  146.9381  132.6480  150.5334 H   0  0  0  0  0  0  0  0  0  0  0  0
  149.4360  137.4766  153.3846 H   0  0  0  0  0  0  0  0  0  0  0  0
  1  2  2  0  0  0  0
  2  3  1  0  0  0  0
  2 17  1  0  0  0  0
  3  4  1  0  0  0  0
  3 24  1  0  0  0  0
  4  5  1  0  0  0  0
  4 25  1  0  0  0  0
  4 26  1  0  0  0  0
  5  6  1  0  0  0  0
  5 11  1  0  0  0  0
  5 27  1  0  0  0  0
  6 10  1  0  0  0  0
  6  7  1  0  0  0  0
  6 28  1  0  0  0  0
  7  8  1  0  0  0  0
  7 29  1  0  0  0  0
  7 30  1  0  0  0  0
  8  9  1  0  0  0  0
  8 31  1  0  0  0  0
  8 32  1  0  0  0  0
  9 10  1  0  0  0  0
 10 33  1  0  0  0  0
 10 34  1  0  0  0  0
 11 16  1  0  0  0  0
 11 12  1  0  0  0  0
 11 48  1  0  0  0  0
 12 13  1  0  0  0  0
 12 35  1  0  0  0  0
 12 36  1  0  0  0  0
 13 14  1  0  0  0  0
 13 37  1  0  0  0  0
 13 38  1  0  0  0  0
 14 15  1  0  0  0  0
 15 16  1  0  0  0  0
 15 39  1  0  0  0  0
 15 40  1  0  0  0  0
 16 41  1  0  0  0  0
 16 42  1  0  0  0  0
 17 18  1  0  0  0  0
 17 43  1  0  0  0  0
 18 23  1  0  0  0  0
 18 19  2  0  0  0  0
 19 20  1  0  0  0  0
 19 44  1  0  0  0  0
 20 21  2  0  0  0  0
 20 45  1  0  0  0  0
 21 22  1  0  0  0  0
 21 46  1  0  0  0  0
 22 23  2  0  0  0  0
 23 47  1  0  0  0  0
M  CHG  1  11   1
M  END
> <s_m_source_file>
AV-unprocessed.smi

> <i_m_source_file_index>
2119

> <i_lp_mmshare_version>
43012

> <i_f3d_flags>
0

> <s_epik_input>
W2NIXTFuW2NIXVtjSF1bY0hdYzFbTkhdQyg9TylbTkhdW0NIMl1bQ0BIXShbQ0BASF0yW0NIMl1bQ0gyXU9bQ0gyXTIpTjNbQ0gyXVtDSDJdT1tDSDJdW0NIMl0z

> <s_epik_cmdline>
J2VwaWtfcHl0aG9uJywgJy1waCcsICc3LjAnLCAnLXRuJywgJzgnLCAnLW1hJywgJzIwMCcsICctbWV0YWxfYmluZGluZycsICctaW1hZScsICc8aW5maWxlLm1hZT4nLCAnLW9tYWUnLCAnPG91dGZpbGUubWFlPic=

> <r_epik_Ionization_Penalty>
0.987463

> <r_epik_Ionization_Penalty_Charging>
0.98326

> <r_epik_Ionization_Penalty_Neutral>
0.00420251

> <r_epik_State_Penalty>
1.01721

> <r_epik_Charging_Adjusted_Penalty>
2.00047

> <i_epik_Tot_Q>
1

> <i_epik_Tot_abs_Q>
1

> <r_epik_Metal_State_Penalty>
1.01439

> <b_epik_Metal_Only>
0

> <s_lp_Force_Field>
OPLS_2005

> <r_lp_Energy>
47.2413

> <b_lp_Chiralities_Consistent>
1

> <s_lp_Variant>
AV-unprocessed.smi:2119-8

> <Gold.Version>
5.8.1

> <Gold.Id.Protein>
6NUR|6NUR_protein|mol2

> <Gold.PLP.Fitness>
46.4973

> <Gold.PLP.PLP>
-33.1419

> <Gold.PLP.part.hbond>
-2.9870

> <Gold.PLP.part.metal>
0.0000

> <Gold.PLP.part.buried>
-6.1668

> <Gold.PLP.part.nonpolar>
-26.3976

> <Gold.PLP.part.repulsive>
0.3784

> <Gold.PLP.ligand.clash>
0.0000

> <Gold.PLP.ligand.torsion>
0.8970

> <Gold.PLP.Chemscore.Hbond>
3.3820

> <Gold.PLP.Chemscore.CHOScore>
1.6024

> <Gold.PLP.Chemscore.Metal>
0.0000

> <Gold.Chemscore.Hbonds>
donor molecule, donor type, donor heavy atom, donor atom, acceptor molecule, acceptor atom, score
      L1  H     3    24       P1  7948  0.75
      L1  H    11    48       P1  7948  2.00
      L1  H    17    43       P1  7948  0.45
      P1  H 10752 10765       L1    14  0.15
      L1  C    21    46       P1 10952  1.00
      L1  C    23    47       P1 10747  0.53

> <Gold.PLP.Chemscore.Internal.Correction>
0.1965

> <Gold.Rescore>
     Score         DG    S(hbond)    S(metal)    S(lipo)     H(rot)  DE(clash)    DE(int)     intcor
     16.81     -18.81       2.21        0.00      87.95       1.70       0.20       1.79       ----

> <Gold.Chemscore.Fitness>
16.8120

> <Gold.Chemscore.DG>
-18.8078

> <Gold.Chemscore.ZeroCoef>
-5.4800

> <Gold.Chemscore.Hbond>
2.2142

> <Gold.Chemscore.Metal>
0.0000

> <Gold.Chemscore.Lipo>
87.9470

> <Gold.Chemscore.Internal_Hbond>
0.0000

> <Gold.Chemscore.DEClash>
0.2017

> <Gold.Chemscore.DEInternal>
1.7941

> <Gold.Chemscore.Rot>
1.7021

> <Gold.Chemscore.Internal.Correction>
   9.000000E+99

> <Gold.Chemscore.Hbonds>
donor molecule, donor type, donor heavy atom, donor atom, acceptor molecule, acceptor atom, score
      L1  H     3    24       P1  7948  0.75
      L1  H    11    48       P1  7948  0.91
      L1  H    17    43       P1  7948  0.36

> <Gold.Chemscore.Hbond.Weighted>
-7.3955

> <Gold.Chemscore.Metal.Weighted>
-0.0000

> <Gold.Chemscore.Lipo.Weighted>
-10.2898

> <Gold.Chemscore.Internal_Hbond.Weighted>
0.0000

> <Gold.Chemscore.DEClash.Weighted>
0.2017

> <Gold.Chemscore.DEInternal.Weighted>
1.7941

> <Gold.Chemscore.Rot.Weighted>
4.3575

> <Gold.Chemscore.Internal.Correction.Weighted>
   9.000000E+99

> <Gold.Protein.RotatedTorsions>
[ 6907 6896 6895 6894 ] final   78.92 input  -60.11 | X-H torsion
[ 7974 7965 7964 7962 ] final -128.45 input  175.53 | X-H torsion
[ 8008 7997 7996 7995 ] final   86.95 input   59.86 | X-H torsion
[ 10167 10162 10161 10158 ] final  -55.92 input  -65.29 | X-H torsion
[ 10718 10713 10712 10709 ] final  -78.88 input   66.30 | X-H torsion
[ 10763 10752 10751 10750 ] final -163.38 input  -60.55 | X-H torsion
[ 11005 11000 10999 10996 ] final  -51.53 input  -57.11 | X-H torsion

> <Gold.Protein.ActiveResidues>
 VAL166  LYS551  ARG553  GLY616  TRP617  ASP618  TYR619  PRO620  LYS621  CYS622 
 ASP623  PHE694  ASN695  SER759  ASP760  ASP761  ALA762  ILE779  LEU786  VAL792 
 PHE793  MET794  SER795  GLU796  ALA797  LYS798  CYS799  TRP800  GLU811  SER814 

> <Gold.Protein.RotatedAtoms>
  152.5178  134.3590  159.9277 H   0  0  0  0  0  0  0  0  0  0  0  0  # atno 6907 bound_to 6896
  151.3542  133.3907  159.2691 H   0  0  0  0  0  0  0  0  0  0  0  0  # atno 6908 bound_to 6896
  150.9703  134.9096  159.7842 H   0  0  0  0  0  0  0  0  0  0  0  0  # atno 6909 bound_to 6896
  144.9670  140.7506  143.4694 H   0  0  0  0  0  0  0  0  0  0  0  0  # atno 7974 bound_to 7965
  155.9693  140.3387  155.6561 H   0  0  0  0  0  0  0  0  0  0  0  0  # atno 8008 bound_to 7997
  155.6696  140.0725  157.2543 H   0  0  0  0  0  0  0  0  0  0  0  0  # atno 8009 bound_to 7997
  154.4162  140.1694  156.1852 H   0  0  0  0  0  0  0  0  0  0  0  0  # atno 8010 bound_to 7997
  140.6347  143.2476  151.5149 H   0  0  0  0  0  0  0  0  0  0  0  0  # atno 10167 bound_to 10162
  156.0106  130.4530  150.3563 H   0  0  0  0  0  0  0  0  0  0  0  0  # atno 10718 bound_to 10713
  154.7128  135.3009  154.9171 H   0  0  0  0  0  0  0  0  0  0  0  0  # atno 10763 bound_to 10752
  154.0067  135.6700  153.4766 H   0  0  0  0  0  0  0  0  0  0  0  0  # atno 10764 bound_to 10752
  153.0769  135.5030  154.8336 H   0  0  0  0  0  0  0  0  0  0  0  0  # atno 10765 bound_to 10752
  141.0876  133.6639  156.3891 H   0  0  0  0  0  0  0  0  0  0  0  0  # atno 11005 bound_to 11000
  145.2615  139.1990  143.4889 LP  0  0  0  0  0  0  0  0  0  0  0  0  # atno 17320 bound_to 7965
  146.3370  140.2546  142.8600 LP  0  0  0  0  0  0  0  0  0  0  0  0  # atno 17321 bound_to 7965
  139.5558  144.2279  152.1610 LP  0  0  0  0  0  0  0  0  0  0  0  0  # atno 17342 bound_to 10162
  140.1532  144.5095  150.6675 LP  0  0  0  0  0  0  0  0  0  0  0  0  # atno 17343 bound_to 10162
  157.1653  131.0355  151.2821 LP  0  0  0  0  0  0  0  0  0  0  0  0  # atno 17370 bound_to 10713
  157.4276  130.7472  149.6963 LP  0  0  0  0  0  0  0  0  0  0  0  0  # atno 17371 bound_to 10713
  140.5327  134.6197  157.5355 LP  0  0  0  0  0  0  0  0  0  0  0  0  # atno 17394 bound_to 11000
  139.9696  134.7314  156.0067 LP  0  0  0  0  0  0  0  0  0  0  0  0  # atno 17395 bound_to 11000

$$$$
