AV-unprocessed.smi:3234|AV-procd|sdf|12357|dock1
  -GOLD-   2272018213D 1   1.00000     0.00000
 Structure written by MMmdl.
 37 39  0  0  0  0  0  0  0  0  4 V2000
  145.1220  138.1121  154.1604 O   0  0  0  0  0  0  0  0  0  0  0  0
  146.0773  137.4834  153.6904 C   0  0  0  0  0  0  0  0  0  0  0  0
  147.2939  138.0522  153.6132 N   0  0  0  0  0  0  0  0  0  0  0  0
  147.6891  139.3743  153.9538 C   0  0  0  0  0  0  0  0  0  0  0  0
  149.0122  139.5655  154.4093 C   0  0  0  0  0  0  0  0  0  0  0  0
  149.4533  140.8633  154.7387 C   0  0  0  0  0  0  0  0  0  0  0  0
  148.6142  141.9130  154.6050 N   0  3  0  0  0  0  0  0  0  0  0  0
  147.3473  141.7822  154.1559 C   0  0  0  0  0  0  0  0  0  0  0  0
  146.8507  140.5090  153.8108 C   0  0  0  0  0  0  0  0  0  0  0  0
  146.0792  136.2019  153.2327 N   0  5  0  0  0  0  0  0  0  0  0  0
  144.9989  135.2377  153.4505 C   0  0  1  0  0  0  0  0  0  0  0  0
  143.6416  135.8041  153.0301 C   0  0  0  0  0  0  0  0  0  0  0  0
  142.8100  134.5666  152.6592 C   0  0  0  0  0  0  0  0  0  0  0  0
  143.7633  133.4417  152.5104 N   0  3  1  0  0  0  0  0  0  0  0  0
  143.5020  132.5654  151.3485 C   0  0  0  0  0  0  0  0  0  0  0  0
  144.7189  131.8016  150.8842 C   0  0  0  0  0  0  0  0  0  0  0  0
  144.2255  132.9951  150.0947 C   0  0  0  0  0  0  0  0  0  0  0  0
  145.1249  134.0086  152.5493 C   0  0  0  0  0  0  0  0  0  0  0  0
  148.0386  137.4368  153.3204 H   0  0  0  0  0  0  0  0  0  0  0  0
  149.6835  138.7248  154.5115 H   0  0  0  0  0  0  0  0  0  0  0  0
  150.4457  141.0916  155.0992 H   0  0  0  0  0  0  0  0  0  0  0  0
  146.7743  142.6946  154.0788 H   0  0  0  0  0  0  0  0  0  0  0  0
  145.8439  140.4265  153.4308 H   0  0  0  0  0  0  0  0  0  0  0  0
  144.9318  134.9098  154.4894 H   0  0  0  0  0  0  0  0  0  0  0  0
  143.1768  136.4010  153.8156 H   0  0  0  0  0  0  0  0  0  0  0  0
  143.7471  136.4410  152.1498 H   0  0  0  0  0  0  0  0  0  0  0  0
  142.0895  134.3191  153.4402 H   0  0  0  0  0  0  0  0  0  0  0  0
  142.2483  134.7463  151.7410 H   0  0  0  0  0  0  0  0  0  0  0  0
  142.5107  132.1193  151.2888 H   0  0  0  0  0  0  0  0  0  0  0  0
  145.6445  131.9177  151.4456 H   0  0  0  0  0  0  0  0  0  0  0  0
  144.5583  130.8163  150.4510 H   0  0  0  0  0  0  0  0  0  0  0  0
  143.7383  132.7967  149.1421 H   0  0  0  0  0  0  0  0  0  0  0  0
  144.8222  133.9049  150.1309 H   0  0  0  0  0  0  0  0  0  0  0  0
  145.4270  134.3004  151.5412 H   0  0  0  0  0  0  0  0  0  0  0  0
  145.8488  133.2845  152.9245 H   0  0  0  0  0  0  0  0  0  0  0  0
  143.6708  132.8818  153.3458 H   0  0  0  0  0  0  0  0  0  0  0  0
  148.9532  142.8444  154.8468 H   0  0  0  0  0  0  0  0  0  0  0  0
  1  2  2  0  0  0  0
  2  3  1  0  0  0  0
  2 10  1  0  0  0  0
  3  4  1  0  0  0  0
  3 19  1  0  0  0  0
  4  9  1  0  0  0  0
  4  5  2  0  0  0  0
  5  6  1  0  0  0  0
  5 20  1  0  0  0  0
  6  7  2  0  0  0  0
  6 21  1  0  0  0  0
  7  8  1  0  0  0  0
  7 37  1  0  0  0  0
  8  9  2  0  0  0  0
  8 22  1  0  0  0  0
  9 23  1  0  0  0  0
 10 11  1  0  0  0  0
 11 18  1  0  0  0  0
 11 12  1  0  0  0  0
 11 24  1  0  0  0  0
 12 13  1  0  0  0  0
 12 25  1  0  0  0  0
 12 26  1  0  0  0  0
 13 14  1  0  0  0  0
 13 27  1  0  0  0  0
 13 28  1  0  0  0  0
 14 15  1  0  0  0  0
 14 18  1  0  0  0  0
 14 36  1  0  0  0  0
 15 17  1  0  0  0  0
 15 16  1  0  0  0  0
 15 29  1  0  0  0  0
 16 17  1  0  0  0  0
 16 30  1  0  0  0  0
 16 31  1  0  0  0  0
 17 32  1  0  0  0  0
 17 33  1  0  0  0  0
 18 34  1  0  0  0  0
 18 35  1  0  0  0  0
M  CHG  1   7   1
M  CHG  1  10  -1
M  CHG  1  14   1
M  END
> <s_m_source_file>
AV-unprocessed.smi

> <i_m_source_file_index>
3234

> <i_lp_mmshare_version>
43012

> <i_f3d_flags>
0

> <s_epik_input>
W2NIXTFbY0hdbltjSF1bY0hdYzFbTkhdQyg9TylbTkhdW0NAQEhdMltDSDJdW0NIMl1OKFtDSDJdMilbQ0hdM1tDSDJdW0NIMl0z

> <s_epik_cmdline>
J2VwaWtfcHl0aG9uJywgJy1waCcsICc3LjAnLCAnLXRuJywgJzgnLCAnLW1hJywgJzIwMCcsICctbWV0YWxfYmluZGluZycsICctaW1hZScsICc8aW5maWxlLm1hZT4nLCAnLW9tYWUnLCAnPG91dGZpbGUubWFlPic=

> <r_epik_Ionization_Penalty>
8.3234

> <r_epik_Ionization_Penalty_Charging>
8.3234

> <r_epik_Ionization_Penalty_Neutral>
3.58513e-06

> <r_epik_State_Penalty>
7.99376

> <r_epik_Charging_Adjusted_Penalty>
16.3172

> <i_epik_Tot_Q>
1

> <i_epik_Tot_abs_Q>
3

> <r_epik_Metal_State_Penalty>
3.98956

> <b_epik_Metal_Only>
1

> <s_lp_Force_Field>
OPLS_2005

> <r_lp_Energy>
39.5194

> <b_lp_Chiralities_Consistent>
1

> <s_lp_Variant>
AV-unprocessed.smi:3234-10

> <Gold.Version>
5.8.1

> <Gold.Id.Protein>
6NUR|6NUR_protein|mol2

> <Gold.PLP.Fitness>
42.5071

> <Gold.PLP.PLP>
-29.2900

> <Gold.PLP.part.hbond>
-3.0000

> <Gold.PLP.part.metal>
0.0000

> <Gold.PLP.part.buried>
-6.5890

> <Gold.PLP.part.nonpolar>
-22.7013

> <Gold.PLP.part.repulsive>
0.4640

> <Gold.PLP.ligand.clash>
0.0000

> <Gold.PLP.ligand.torsion>
0.9843

> <Gold.PLP.Chemscore.Hbond>
4.6325

> <Gold.PLP.Chemscore.CHOScore>
0.0000

> <Gold.PLP.Chemscore.Metal>
0.0000

> <Gold.Chemscore.Hbonds>
donor molecule, donor type, donor heavy atom, donor atom, acceptor molecule, acceptor atom, score
      L1  H     3    19       P1  7948  0.83
      L1  H     7    37       P1  8028  2.00
      L1  H    14    36       P1 10957  1.79

> <Gold.PLP.Chemscore.Internal.Correction>
1.2883

> <Gold.Rescore>
     Score         DG    S(hbond)    S(metal)    S(lipo)     H(rot)  DE(clash)    DE(int)     intcor
     16.73     -19.31       2.57        0.00      71.19       1.21       0.02       2.56       ----

> <Gold.Chemscore.Fitness>
16.7315

> <Gold.Chemscore.DG>
-19.3073

> <Gold.Chemscore.ZeroCoef>
-5.4800

> <Gold.Chemscore.Hbond>
2.5742

> <Gold.Chemscore.Metal>
0.0000

> <Gold.Chemscore.Lipo>
71.1874

> <Gold.Chemscore.Internal_Hbond>
0.0000

> <Gold.Chemscore.DEClash>
0.0174

> <Gold.Chemscore.DEInternal>
2.5584

> <Gold.Chemscore.Rot>
1.2108

> <Gold.Chemscore.Internal.Correction>
   9.000000E+99

> <Gold.Chemscore.Hbonds>
donor molecule, donor type, donor heavy atom, donor atom, acceptor molecule, acceptor atom, score
      L1  H     3    19       P1  7948  0.78
      L1  H     7    37       P1  8028  0.92
      L1  H    14    36       P1 10957  0.56

> <Gold.Chemscore.Hbond.Weighted>
-8.5980

> <Gold.Chemscore.Metal.Weighted>
-0.0000

> <Gold.Chemscore.Lipo.Weighted>
-8.3289

> <Gold.Chemscore.Internal_Hbond.Weighted>
0.0000

> <Gold.Chemscore.DEClash.Weighted>
0.0174

> <Gold.Chemscore.DEInternal.Weighted>
2.5584

> <Gold.Chemscore.Rot.Weighted>
3.0996

> <Gold.Chemscore.Internal.Correction.Weighted>
   9.000000E+99

> <Gold.Protein.RotatedTorsions>
[ 6907 6896 6895 6894 ] final   85.41 input  -60.11 | X-H torsion
[ 7974 7965 7964 7962 ] final  111.44 input  175.53 | X-H torsion
[ 8008 7997 7996 7995 ] final   89.05 input   59.86 | X-H torsion
[ 10167 10162 10161 10158 ] final  -21.95 input  -65.29 | X-H torsion
[ 10718 10713 10712 10709 ] final   78.24 input   66.30 | X-H torsion
[ 10763 10752 10751 10750 ] final  134.65 input  -60.55 | X-H torsion
[ 11005 11000 10999 10996 ] final -116.84 input  -57.11 | X-H torsion

> <Gold.Protein.ActiveResidues>
 VAL166  LYS551  ARG553  GLY616  TRP617  ASP618  TYR619  PRO620  LYS621  CYS622 
 ASP623  PHE694  ASN695  SER759  ASP760  ASP761  ALA762  ILE779  LEU786  VAL792 
 PHE793  MET794  SER795  GLU796  ALA797  LYS798  CYS799  TRP800  GLU811  SER814 

> <Gold.Protein.RotatedAtoms>
  152.5374  134.2590  159.8927 H   0  0  0  0  0  0  0  0  0  0  0  0  # atno 6907 bound_to 6896
  151.2551  133.4324  159.2621 H   0  0  0  0  0  0  0  0  0  0  0  0  # atno 6908 bound_to 6896
  151.0504  134.9683  159.8265 H   0  0  0  0  0  0  0  0  0  0  0  0  # atno 6909 bound_to 6896
  145.2422  139.2774  143.4111 H   0  0  0  0  0  0  0  0  0  0  0  0  # atno 7974 bound_to 7965
  155.9953  140.3365  155.6792 H   0  0  0  0  0  0  0  0  0  0  0  0  # atno 8008 bound_to 7997
  155.6365  140.0690  157.2650 H   0  0  0  0  0  0  0  0  0  0  0  0  # atno 8009 bound_to 7997
  154.4232  140.1750  156.1515 H   0  0  0  0  0  0  0  0  0  0  0  0  # atno 8010 bound_to 7997
  140.7284  143.4580  151.0420 H   0  0  0  0  0  0  0  0  0  0  0  0  # atno 10167 bound_to 10162
  157.6738  130.9859  150.1758 H   0  0  0  0  0  0  0  0  0  0  0  0  # atno 10718 bound_to 10713
  153.8270  135.3108  155.3415 H   0  0  0  0  0  0  0  0  0  0  0  0  # atno 10763 bound_to 10752
  154.7989  135.4739  154.0230 H   0  0  0  0  0  0  0  0  0  0  0  0  # atno 10764 bound_to 10752
  153.1657  135.6869  153.8768 H   0  0  0  0  0  0  0  0  0  0  0  0  # atno 10765 bound_to 10752
  141.0395  133.9858  157.3017 H   0  0  0  0  0  0  0  0  0  0  0  0  # atno 11005 bound_to 11000
  146.3325  140.2789  142.8609 LP  0  0  0  0  0  0  0  0  0  0  0  0  # atno 17320 bound_to 7965
  144.9578  140.8244  143.5532 LP  0  0  0  0  0  0  0  0  0  0  0  0  # atno 17321 bound_to 7965
  139.8262  143.7753  152.3178 LP  0  0  0  0  0  0  0  0  0  0  0  0  # atno 17342 bound_to 10162
  139.7852  144.7430  151.0031 LP  0  0  0  0  0  0  0  0  0  0  0  0  # atno 17343 bound_to 10162
  156.2502  130.3700  149.8241 LP  0  0  0  0  0  0  0  0  0  0  0  0  # atno 17370 bound_to 10713
  156.6016  130.8549  151.3433 LP  0  0  0  0  0  0  0  0  0  0  0  0  # atno 17371 bound_to 10713
  139.9265  135.0201  156.8253 LP  0  0  0  0  0  0  0  0  0  0  0  0  # atno 17394 bound_to 11000
  140.6260  133.9949  155.7640 LP  0  0  0  0  0  0  0  0  0  0  0  0  # atno 17395 bound_to 11000

$$$$
