AV-unprocessed.smi:2664|AV-procd|sdf|10326|dock8
  -GOLD-   2272014343D 1   1.00000     0.00000
 Structure written by MMmdl.
 43 44  0  0  0  0  0  0  0  0  1 V2000
  144.6817  135.7552  152.9353 O   0  0  0  0  0  0  0  0  0  0  0  0
  145.8593  135.8033  152.5811 C   0  0  0  0  0  0  0  0  0  0  0  0
  146.4459  134.9599  151.7141 N   0  0  0  0  0  0  0  0  0  0  0  0
  145.8640  133.8929  150.9766 C   0  0  0  0  0  0  0  0  0  0  0  0
  144.4605  133.8812  150.8379 C   0  0  0  0  0  0  0  0  0  0  0  0
  143.8561  132.8247  150.1277 C   0  0  0  0  0  0  0  0  0  0  0  0
  144.5520  131.8091  149.5751 N   0  0  0  0  0  0  0  0  0  0  0  0
  145.8942  131.8145  149.7199 C   0  0  0  0  0  0  0  0  0  0  0  0
  146.5971  132.8221  150.4102 C   0  0  0  0  0  0  0  0  0  0  0  0
  146.7371  136.7099  153.0378 N   0  0  0  0  0  0  0  0  0  0  0  0
  146.4500  137.7844  153.9922 C   0  0  2  0  0  0  0  0  0  0  0  0
  146.8548  139.1397  153.3579 C   0  0  0  0  0  0  0  0  0  0  0  0
  146.6464  139.2387  151.8347 C   0  0  0  0  0  0  0  0  0  0  0  0
  147.3874  138.2401  151.1661 O   0  0  0  0  0  0  0  0  0  0  0  0
  147.1575  137.4948  155.3483 C   0  0  0  0  0  0  0  0  0  0  0  0
  146.8029  138.5466  156.4316 C   0  0  0  0  0  0  0  0  0  0  0  0
  147.5033  138.2699  157.7712 C   0  0  0  0  0  0  0  0  0  0  0  0
  149.0249  138.1936  157.5976 C   0  0  0  0  0  0  0  0  0  0  0  0
  149.3971  137.1390  156.5486 C   0  0  0  0  0  0  0  0  0  0  0  0
  148.6975  137.4103  155.2068 C   0  0  0  0  0  0  0  0  0  0  0  0
  147.4413  135.0741  151.5926 H   0  0  0  0  0  0  0  0  0  0  0  0
  143.8540  134.6679  151.2622 H   0  0  0  0  0  0  0  0  0  0  0  0
  142.7838  132.7938  150.0028 H   0  0  0  0  0  0  0  0  0  0  0  0
  146.4256  130.9847  149.2776 H   0  0  0  0  0  0  0  0  0  0  0  0
  147.6696  132.7445  150.4991 H   0  0  0  0  0  0  0  0  0  0  0  0
  147.6849  136.6600  152.6940 H   0  0  0  0  0  0  0  0  0  0  0  0
  145.3774  137.8225  154.1902 H   0  0  0  0  0  0  0  0  0  0  0  0
  146.2958  139.9547  153.8150 H   0  0  0  0  0  0  0  0  0  0  0  0
  147.9048  139.3352  153.5789 H   0  0  0  0  0  0  0  0  0  0  0  0
  145.5918  139.0979  151.5967 H   0  0  0  0  0  0  0  0  0  0  0  0
  146.9254  140.2198  151.4508 H   0  0  0  0  0  0  0  0  0  0  0  0
  147.8727  137.7439  151.8078 H   0  0  0  0  0  0  0  0  0  0  0  0
  146.8051  136.5260  155.7060 H   0  0  0  0  0  0  0  0  0  0  0  0
  147.0762  139.5418  156.0775 H   0  0  0  0  0  0  0  0  0  0  0  0
  145.7287  138.5713  156.6127 H   0  0  0  0  0  0  0  0  0  0  0  0
  147.2514  139.0504  158.4896 H   0  0  0  0  0  0  0  0  0  0  0  0
  147.1339  137.3333  158.1906 H   0  0  0  0  0  0  0  0  0  0  0  0
  149.4095  139.1675  157.2925 H   0  0  0  0  0  0  0  0  0  0  0  0
  149.4986  137.9564  158.5506 H   0  0  0  0  0  0  0  0  0  0  0  0
  150.4780  137.1247  156.4062 H   0  0  0  0  0  0  0  0  0  0  0  0
  149.1205  136.1481  156.9110 H   0  0  0  0  0  0  0  0  0  0  0  0
  148.9812  136.6153  154.5193 H   0  0  0  0  0  0  0  0  0  0  0  0
  149.0784  138.3393  154.7805 H   0  0  0  0  0  0  0  0  0  0  0  0
  1  2  2  0  0  0  0
  2  3  1  0  0  0  0
  2 10  1  0  0  0  0
  3  4  1  0  0  0  0
  3 21  1  0  0  0  0
  4  9  1  0  0  0  0
  4  5  2  0  0  0  0
  5  6  1  0  0  0  0
  5 22  1  0  0  0  0
  6  7  2  0  0  0  0
  6 23  1  0  0  0  0
  7  8  1  0  0  0  0
  8  9  2  0  0  0  0
  8 24  1  0  0  0  0
  9 25  1  0  0  0  0
 10 11  1  0  0  0  0
 10 26  1  0  0  0  0
 11 12  1  0  0  0  0
 11 15  1  0  0  0  0
 11 27  1  0  0  0  0
 12 13  1  0  0  0  0
 12 28  1  0  0  0  0
 12 29  1  0  0  0  0
 13 14  1  0  0  0  0
 13 30  1  0  0  0  0
 13 31  1  0  0  0  0
 14 32  1  0  0  0  0
 15 20  1  0  0  0  0
 15 16  1  0  0  0  0
 15 33  1  0  0  0  0
 16 17  1  0  0  0  0
 16 34  1  0  0  0  0
 16 35  1  0  0  0  0
 17 18  1  0  0  0  0
 17 36  1  0  0  0  0
 17 37  1  0  0  0  0
 18 19  1  0  0  0  0
 18 38  1  0  0  0  0
 18 39  1  0  0  0  0
 19 20  1  0  0  0  0
 19 40  1  0  0  0  0
 19 41  1  0  0  0  0
 20 42  1  0  0  0  0
 20 43  1  0  0  0  0
M  END
> <s_m_source_file>
AV-unprocessed.smi

> <i_m_source_file_index>
2664

> <i_lp_mmshare_version>
43012

> <i_f3d_flags>
0

> <s_epik_input>
W2NIXTFbY0hdbltjSF1bY0hdYzFbTkhdQyg9TylbTkhdW0NASF0oW0NIMl1bQ0gyXVtPSF0pW0NIXTJbQ0gyXVtDSDJdW0NIMl1bQ0gyXVtDSDJdMg==

> <s_epik_cmdline>
J2VwaWtfcHl0aG9uJywgJy1waCcsICc3LjAnLCAnLXRuJywgJzgnLCAnLW1hJywgJzIwMCcsICctbWV0YWxfYmluZGluZycsICctaW1hZScsICc8aW5maWxlLm1hZT4nLCAnLW9tYWUnLCAnPG91dGZpbGUubWFlPic=

> <r_epik_Ionization_Penalty>
0.119281

> <r_epik_Ionization_Penalty_Charging>
0

> <r_epik_Ionization_Penalty_Neutral>
0.119281

> <r_epik_State_Penalty>
0.108806

> <r_epik_Charging_Adjusted_Penalty>
0.108806

> <i_epik_Tot_Q>
0

> <i_epik_Tot_abs_Q>
0

> <r_epik_Metal_State_Penalty>
0.0904205

> <b_epik_Metal_Only>
0

> <s_lp_Force_Field>
OPLS_2005

> <r_lp_Energy>
21.6864

> <b_lp_Chiralities_Consistent>
1

> <s_lp_Variant>
AV-unprocessed.smi:2664-1

> <Gold.Version>
5.8.1

> <Gold.Id.Protein>
6NUR|6NUR_protein|mol2

> <Gold.PLP.Fitness>
43.7694

> <Gold.PLP.PLP>
-28.9083

> <Gold.PLP.part.hbond>
-5.9390

> <Gold.PLP.part.metal>
0.0000

> <Gold.PLP.part.buried>
-0.9434

> <Gold.PLP.part.nonpolar>
-22.3060

> <Gold.PLP.part.repulsive>
0.3070

> <Gold.PLP.ligand.clash>
0.0000

> <Gold.PLP.ligand.torsion>
0.4009

> <Gold.PLP.Chemscore.Hbond>
3.8573

> <Gold.PLP.Chemscore.CHOScore>
1.3447

> <Gold.PLP.Chemscore.Metal>
0.0000

> <Gold.Chemscore.Hbonds>
donor molecule, donor type, donor heavy atom, donor atom, acceptor molecule, acceptor atom, score
      L1  H     3    21       P1  7948  0.94
      L1  H    10    26       P1  7948  1.00
      L1  H    14    32       P1  7948  0.74
      P1  H  7954  7966       L1    14  1.00
      P1  H 10785 10796       L1     7  0.17
      L1  C     6    23       P1 10186  1.00
      L1  C     8    24       P1 10747  0.34

> <Gold.PLP.Chemscore.Internal.Correction>
0.0567

> <Gold.Rescore>
     Score         DG    S(hbond)    S(metal)    S(lipo)     H(rot)  DE(clash)    DE(int)     intcor
     14.23     -17.91       2.94        0.00      70.99       2.23       0.24       3.44       ----

> <Gold.Chemscore.Fitness>
14.2281

> <Gold.Chemscore.DG>
-17.9076

> <Gold.Chemscore.ZeroCoef>
-5.4800

> <Gold.Chemscore.Hbond>
2.9396

> <Gold.Chemscore.Metal>
0.0000

> <Gold.Chemscore.Lipo>
70.9881

> <Gold.Chemscore.Internal_Hbond>
0.0000

> <Gold.Chemscore.DEClash>
0.2418

> <Gold.Chemscore.DEInternal>
3.4377

> <Gold.Chemscore.Rot>
2.2251

> <Gold.Chemscore.Internal.Correction>
   9.000000E+99

> <Gold.Chemscore.Hbonds>
donor molecule, donor type, donor heavy atom, donor atom, acceptor molecule, acceptor atom, score
      L1  H     3    21       P1  7948  0.68
      L1  H    10    26       P1  7948  0.97
      L1  H    14    32       P1  7948  0.74
      P1  H  7954  7966       L1    14  0.24
      P1  H 10785 10796       L1     7  0.15

> <Gold.Chemscore.Hbond.Weighted>
-9.8182

> <Gold.Chemscore.Metal.Weighted>
-0.0000

> <Gold.Chemscore.Lipo.Weighted>
-8.3056

> <Gold.Chemscore.Internal_Hbond.Weighted>
0.0000

> <Gold.Chemscore.DEClash.Weighted>
0.2418

> <Gold.Chemscore.DEInternal.Weighted>
3.4377

> <Gold.Chemscore.Rot.Weighted>
5.6962

> <Gold.Chemscore.Internal.Correction.Weighted>
   9.000000E+99

> <Gold.Protein.RotatedTorsions>
[ 6907 6896 6895 6894 ] final   20.39 input  -60.11 | X-H torsion
[ 7974 7965 7964 7962 ] final -138.84 input  175.53 | X-H torsion
[ 8008 7997 7996 7995 ] final   15.27 input   59.86 | X-H torsion
[ 10167 10162 10161 10158 ] final  114.21 input  -65.29 | X-H torsion
[ 10718 10713 10712 10709 ] final   46.32 input   66.30 | X-H torsion
[ 10763 10752 10751 10750 ] final -157.63 input  -60.55 | X-H torsion
[ 11005 11000 10999 10996 ] final  -82.94 input  -57.11 | X-H torsion

> <Gold.Protein.ActiveResidues>
 VAL166  LYS551  ARG553  GLY616  TRP617  ASP618  TYR619  PRO620  LYS621  CYS622 
 ASP623  PHE694  ASN695  SER759  ASP760  ASP761  ALA762  ILE779  LEU786  VAL792 
 PHE793  MET794  SER795  GLU796  ALA797  LYS798  CYS799  TRP800  GLU811  SER814 

> <Gold.Protein.RotatedAtoms>
  151.8957  135.0399  160.0501 H   0  0  0  0  0  0  0  0  0  0  0  0  # atno 6907 bound_to 6896
  152.2400  133.5123  159.5273 H   0  0  0  0  0  0  0  0  0  0  0  0  # atno 6908 bound_to 6896
  150.7050  134.1018  159.4011 H   0  0  0  0  0  0  0  0  0  0  0  0  # atno 6909 bound_to 6896
  144.8725  140.6388  143.5257 H   0  0  0  0  0  0  0  0  0  0  0  0  # atno 7974 bound_to 7965
  154.8602  140.2943  155.5544 H   0  0  0  0  0  0  0  0  0  0  0  0  # atno 8008 bound_to 7997
  156.3019  140.2479  156.3508 H   0  0  0  0  0  0  0  0  0  0  0  0  # atno 8009 bound_to 7997
  154.8926  140.0394  157.1837 H   0  0  0  0  0  0  0  0  0  0  0  0  # atno 8010 bound_to 7997
  139.6405  144.7123  151.2247 H   0  0  0  0  0  0  0  0  0  0  0  0  # atno 10167 bound_to 10162
  157.4469  130.8115  149.7749 H   0  0  0  0  0  0  0  0  0  0  0  0  # atno 10718 bound_to 10713
  154.7621  135.3120  154.8359 H   0  0  0  0  0  0  0  0  0  0  0  0  # atno 10763 bound_to 10752
  153.9117  135.6805  153.4755 H   0  0  0  0  0  0  0  0  0  0  0  0  # atno 10764 bound_to 10752
  153.1222  135.4817  154.9146 H   0  0  0  0  0  0  0  0  0  0  0  0  # atno 10765 bound_to 10752
  141.1660  133.7269  156.8647 H   0  0  0  0  0  0  0  0  0  0  0  0  # atno 11005 bound_to 11000
  145.4103  139.1581  143.4129 LP  0  0  0  0  0  0  0  0  0  0  0  0  # atno 17320 bound_to 7965
  146.2940  140.4207  142.8728 LP  0  0  0  0  0  0  0  0  0  0  0  0  # atno 17321 bound_to 7965
  140.7488  143.6320  150.8414 LP  0  0  0  0  0  0  0  0  0  0  0  0  # atno 17342 bound_to 10162
  139.9957  143.5798  152.2894 LP  0  0  0  0  0  0  0  0  0  0  0  0  # atno 17343 bound_to 10162
  155.9971  130.3902  150.2754 LP  0  0  0  0  0  0  0  0  0  0  0  0  # atno 17370 bound_to 10713
  157.0923  131.0173  151.3117 LP  0  0  0  0  0  0  0  0  0  0  0  0  # atno 17371 bound_to 10713
  140.1824  134.9024  157.2964 LP  0  0  0  0  0  0  0  0  0  0  0  0  # atno 17394 bound_to 11000
  140.2381  134.3829  155.7492 LP  0  0  0  0  0  0  0  0  0  0  0  0  # atno 17395 bound_to 11000

$$$$
