AV-unprocessed.smi:118|AV-procd|sdf|1132|dock8
  -GOLD-   2262018263D 1   1.00000     0.00000
 Structure written by MMmdl.
 41 44  0  0  0  0  0  0  0  0  1 V2000
  150.1177  142.7115  158.1585 O   0  0  0  0  0  0  0  0  0  0  0  0
  150.9545  142.3022  157.3526 C   0  0  0  0  0  0  0  0  0  0  0  0
  150.6615  142.3320  155.8440 C   0  0  0  0  0  0  0  0  0  0  0  0
  150.1852  141.0345  155.3165 N   0  0  0  0  0  0  0  0  0  0  0  0
  151.0639  139.9231  155.3345 C   0  0  0  0  0  0  0  0  0  0  0  0
  152.2034  140.0164  155.7932 O   0  0  0  0  0  0  0  0  0  0  0  0
  150.5281  138.6880  154.7735 C   0  0  0  0  0  0  0  0  0  0  0  0
  151.2847  137.5773  154.7665 F   0  0  0  0  0  0  0  0  0  0  0  0
  149.2816  138.6404  154.2597 C   0  0  0  0  0  0  0  0  0  0  0  0
  148.4424  139.7403  154.2268 N   0  0  0  0  0  0  0  0  0  0  0  0
  147.0461  139.6726  153.6423 C   0  0  1  0  0  0  0  0  0  0  0  0
  147.0963  139.2759  152.1529 C   0  0  0  0  0  0  0  0  0  0  0  0
  146.1577  138.0872  152.0865 C   0  0  0  0  0  0  0  0  0  0  0  0
  146.2708  137.5154  153.4914 C   0  0  0  0  0  0  0  0  0  0  0  0
  146.3026  138.6852  154.2980 O   0  0  0  0  0  0  0  0  0  0  0  0
  148.8798  140.9660  154.7743 C   0  0  0  0  0  0  0  0  0  0  0  0
  148.1417  141.9539  154.7706 O   0  0  0  0  0  0  0  0  0  0  0  0
  152.1545  141.7987  157.6925 N   0  0  0  0  0  0  0  0  0  0  0  0
  152.7031  141.6225  158.9930 C   0  0  0  0  0  0  0  0  0  0  0  0
  152.5380  142.5615  160.0439 C   0  0  0  0  0  0  0  0  0  0  0  0
  153.1214  142.3391  161.3114 C   0  0  0  0  0  0  0  0  0  0  0  0
  153.8906  141.1835  161.5564 C   0  0  0  0  0  0  0  0  0  0  0  0
  154.0721  140.2588  160.5126 C   0  0  0  0  0  0  0  0  0  0  0  0
  153.4895  140.4761  159.2424 C   0  0  0  0  0  0  0  0  0  0  0  0
  153.7696  139.4650  158.3247 N   0  0  0  0  0  0  0  0  0  0  0  0
  154.6305  138.5411  159.1861 S   0  0  0  0  0  0  0  0  0  0  0  0
  154.8097  139.0833  160.6040 N   0  0  0  0  0  0  0  0  0  0  0  0
  149.9429  143.1302  155.6527 H   0  0  0  0  0  0  0  0  0  0  0  0
  151.5591  142.6527  155.3121 H   0  0  0  0  0  0  0  0  0  0  0  0
  148.9460  137.6941  153.8642 H   0  0  0  0  0  0  0  0  0  0  0  0
  146.6040  140.6527  153.8303 H   0  0  0  0  0  0  0  0  0  0  0  0
  146.7828  140.1046  151.5174 H   0  0  0  0  0  0  0  0  0  0  0  0
  148.1078  138.9772  151.8723 H   0  0  0  0  0  0  0  0  0  0  0  0
  145.1371  138.4248  151.9019 H   0  0  0  0  0  0  0  0  0  0  0  0
  146.4288  137.3715  151.3101 H   0  0  0  0  0  0  0  0  0  0  0  0
  145.4342  136.8678  153.7535 H   0  0  0  0  0  0  0  0  0  0  0  0
  147.1964  136.9500  153.6084 H   0  0  0  0  0  0  0  0  0  0  0  0
  152.7036  141.4161  156.9365 H   0  0  0  0  0  0  0  0  0  0  0  0
  151.9762  143.4708  159.8966 H   0  0  0  0  0  0  0  0  0  0  0  0
  152.9808  143.0646  162.0990 H   0  0  0  0  0  0  0  0  0  0  0  0
  154.3369  141.0157  162.5255 H   0  0  0  0  0  0  0  0  0  0  0  0
  1  2  2  0  0  0  0
  2  3  1  0  0  0  0
  2 18  1  0  0  0  0
  3  4  1  0  0  0  0
  3 28  1  0  0  0  0
  3 29  1  0  0  0  0
  4 16  1  0  0  0  0
  4  5  1  0  0  0  0
  5  6  2  0  0  0  0
  5  7  1  0  0  0  0
  7  8  1  0  0  0  0
  7  9  2  0  0  0  0
  9 10  1  0  0  0  0
  9 30  1  0  0  0  0
 10 11  1  0  0  0  0
 10 16  1  0  0  0  0
 11 15  1  0  0  0  0
 11 12  1  0  0  0  0
 11 31  1  0  0  0  0
 12 13  1  0  0  0  0
 12 32  1  0  0  0  0
 12 33  1  0  0  0  0
 13 14  1  0  0  0  0
 13 34  1  0  0  0  0
 13 35  1  0  0  0  0
 14 15  1  0  0  0  0
 14 36  1  0  0  0  0
 14 37  1  0  0  0  0
 16 17  2  0  0  0  0
 18 19  1  0  0  0  0
 18 38  1  0  0  0  0
 19 24  1  0  0  0  0
 19 20  2  0  0  0  0
 20 21  1  0  0  0  0
 20 39  1  0  0  0  0
 21 22  2  0  0  0  0
 21 40  1  0  0  0  0
 22 23  1  0  0  0  0
 22 41  1  0  0  0  0
 23 27  1  0  0  0  0
 23 24  2  0  0  0  0
 24 25  1  0  0  0  0
 25 26  2  0  0  0  0
 26 27  2  0  0  0  0
M  END
> <s_m_source_file>
AV-unprocessed.smi

> <i_m_source_file_index>
118

> <i_lp_mmshare_version>
43012

> <i_f3d_flags>
0

> <s_epik_input>
TjE9Uz1OYyhjMTIpYyhbY0hdW2NIXVtjSF0yKVtOSF1DKD1PKVtDSDJdbjNjKD1PKWMoRilbY0hdbihjMz1PKVtDQEBIXTRbQ0gyXVtDSDJdW0NIMl1PNA==

> <s_epik_cmdline>
J2VwaWtfcHl0aG9uJywgJy1waCcsICc3LjAnLCAnLXRuJywgJzgnLCAnLW1hJywgJzIwMCcsICctbWV0YWxfYmluZGluZycsICctaW1hZScsICc8aW5maWxlLm1hZT4nLCAnLW9tYWUnLCAnPG91dGZpbGUubWFlPic=

> <r_lp_tautomer_probability>
1

> <r_epik_Ionization_Penalty>
1.81156e-06

> <r_epik_Ionization_Penalty_Charging>
3.88729e-08

> <r_epik_Ionization_Penalty_Neutral>
1.77269e-06

> <r_epik_State_Penalty>
-0

> <r_epik_Charging_Adjusted_Penalty>
3.88729e-08

> <i_epik_Tot_Q>
0

> <i_epik_Tot_abs_Q>
0

> <r_epik_Metal_State_Penalty>
-0

> <b_epik_Metal_Only>
0

> <s_epik_Chemistry_Notes>
This compound contains an acetal/aminal-like group ( X-CH(R)-Y where X, Y are N, S, or O) that may be acid/base labile, releasing an aldehyde.

> <s_lp_Force_Field>
OPLS_2005

> <r_lp_Energy>
52.0747

> <b_lp_Chiralities_Consistent>
1

> <s_lp_Variant>
AV-unprocessed.smi:118-2

> <Gold.Version>
5.8.1

> <Gold.Id.Protein>
6NUR|6NUR_protein|mol2

> <Gold.PLP.Fitness>
50.2338

> <Gold.PLP.PLP>
-45.4751

> <Gold.PLP.part.hbond>
-1.5963

> <Gold.PLP.part.metal>
0.0000

> <Gold.PLP.part.buried>
3.0479

> <Gold.PLP.part.nonpolar>
-47.1526

> <Gold.PLP.part.repulsive>
1.4188

> <Gold.PLP.ligand.clash>
0.0000

> <Gold.PLP.ligand.torsion>
0.6268

> <Gold.PLP.Chemscore.Hbond>
1.0000

> <Gold.PLP.Chemscore.CHOScore>
1.0000

> <Gold.PLP.Chemscore.Metal>
0.0000

> <Gold.Chemscore.Hbonds>
donor molecule, donor type, donor heavy atom, donor atom, acceptor molecule, acceptor atom, score
      P1  H  7997  8008       L1    25  1.00
      L1  C     9    30       P1  7948  1.00

> <Gold.PLP.Chemscore.Internal.Correction>
0.0122

> <Gold.Rescore>
     Score         DG    S(hbond)    S(metal)    S(lipo)     H(rot)  DE(clash)    DE(int)     intcor
     11.88     -14.29       0.86        0.00      90.03       1.80       0.19       2.22       ----

> <Gold.Chemscore.Fitness>
11.8838

> <Gold.Chemscore.DG>
-14.2900

> <Gold.Chemscore.ZeroCoef>
-5.4800

> <Gold.Chemscore.Hbond>
0.8618

> <Gold.Chemscore.Metal>
0.0000

> <Gold.Chemscore.Lipo>
90.0331

> <Gold.Chemscore.Internal_Hbond>
0.0000

> <Gold.Chemscore.DEClash>
0.1856

> <Gold.Chemscore.DEInternal>
2.2206

> <Gold.Chemscore.Rot>
1.7977

> <Gold.Chemscore.Internal.Correction>
   9.000000E+99

> <Gold.Chemscore.Hbonds>
donor molecule, donor type, donor heavy atom, donor atom, acceptor molecule, acceptor atom, score
      P1  H  7997  8008       L1    25  0.44

> <Gold.Chemscore.Hbond.Weighted>
-2.8783

> <Gold.Chemscore.Metal.Weighted>
-0.0000

> <Gold.Chemscore.Lipo.Weighted>
-10.5339

> <Gold.Chemscore.Internal_Hbond.Weighted>
0.0000

> <Gold.Chemscore.DEClash.Weighted>
0.1856

> <Gold.Chemscore.DEInternal.Weighted>
2.2206

> <Gold.Chemscore.Rot.Weighted>
4.6022

> <Gold.Chemscore.Internal.Correction.Weighted>
   9.000000E+99

> <Gold.Protein.RotatedTorsions>
[ 6907 6896 6895 6894 ] final   95.61 input  -60.11 | X-H torsion
[ 7974 7965 7964 7962 ] final -152.75 input  175.53 | X-H torsion
[ 8008 7997 7996 7995 ] final  -94.65 input   59.86 | X-H torsion
[ 10167 10162 10161 10158 ] final -133.08 input  -65.29 | X-H torsion
[ 10718 10713 10712 10709 ] final   19.16 input   66.30 | X-H torsion
[ 10763 10752 10751 10750 ] final  130.59 input  -60.55 | X-H torsion
[ 11005 11000 10999 10996 ] final -124.10 input  -57.11 | X-H torsion

> <Gold.Protein.ActiveResidues>
 VAL166  LYS551  ARG553  GLY616  TRP617  ASP618  TYR619  PRO620  LYS621  CYS622 
 ASP623  PHE694  ASN695  SER759  ASP760  ASP761  ALA762  ILE779  LEU786  VAL792 
 PHE793  MET794  SER795  GLU796  ALA797  LYS798  CYS799  TRP800  GLU811  SER814 

> <Gold.Protein.RotatedAtoms>
  152.5442  134.1014  159.8319 H   0  0  0  0  0  0  0  0  0  0  0  0  # atno 6907 bound_to 6896
  151.1091  133.5179  159.2614 H   0  0  0  0  0  0  0  0  0  0  0  0  # atno 6908 bound_to 6896
  151.1904  135.0409  159.8884 H   0  0  0  0  0  0  0  0  0  0  0  0  # atno 6909 bound_to 6896
  144.7777  140.4620  143.5861 H   0  0  0  0  0  0  0  0  0  0  0  0  # atno 7974 bound_to 7965
  154.7511  140.0487  157.0894 H   0  0  0  0  0  0  0  0  0  0  0  0  # atno 8008 bound_to 7997
  155.0056  140.3130  155.4831 H   0  0  0  0  0  0  0  0  0  0  0  0  # atno 8009 bound_to 7997
  156.2885  140.2193  156.5168 H   0  0  0  0  0  0  0  0  0  0  0  0  # atno 8010 bound_to 7997
  139.9019  143.6597  152.2593 H   0  0  0  0  0  0  0  0  0  0  0  0  # atno 10167 bound_to 10162
  157.1065  130.6490  149.5886 H   0  0  0  0  0  0  0  0  0  0  0  0  # atno 10718 bound_to 10713
  153.7605  135.3196  155.3336 H   0  0  0  0  0  0  0  0  0  0  0  0  # atno 10763 bound_to 10752
  154.8232  135.4589  154.0842 H   0  0  0  0  0  0  0  0  0  0  0  0  # atno 10764 bound_to 10752
  153.2072  135.6931  153.8242 H   0  0  0  0  0  0  0  0  0  0  0  0  # atno 10765 bound_to 10752
  140.9867  134.0596  157.3702 H   0  0  0  0  0  0  0  0  0  0  0  0  # atno 11005 bound_to 11000
  145.6137  139.1516  143.3061 LP  0  0  0  0  0  0  0  0  0  0  0  0  # atno 17320 bound_to 7965
  146.1967  140.6252  142.9121 LP  0  0  0  0  0  0  0  0  0  0  0  0  # atno 17321 bound_to 7965
  139.7017  144.7634  151.1261 LP  0  0  0  0  0  0  0  0  0  0  0  0  # atno 17342 bound_to 10162
  140.7705  143.5448  150.9271 LP  0  0  0  0  0  0  0  0  0  0  0  0  # atno 17343 bound_to 10162
  155.9861  130.4894  150.7062 LP  0  0  0  0  0  0  0  0  0  0  0  0  # atno 17370 bound_to 10713
  157.4596  131.0882  151.0759 LP  0  0  0  0  0  0  0  0  0  0  0  0  # atno 17371 bound_to 10713
  139.8974  135.0150  156.7097 LP  0  0  0  0  0  0  0  0  0  0  0  0  # atno 17394 bound_to 11000
  140.7103  133.9229  155.8080 LP  0  0  0  0  0  0  0  0  0  0  0  0  # atno 17395 bound_to 11000

$$$$
