AV-unprocessed.smi:55|AV-procd|sdf|565|dock8
  -GOLD-   2262016473D 1   1.00000     0.00000
 Structure written by MMmdl.
 31 32  0  0  0  0  0  0  0  0  1 V2000
  150.7179  144.5868  159.6643 C   0  0  0  0  0  0  0  0  0  0  0  0
  151.2776  143.2766  159.1357 C   0  0  0  0  0  0  0  0  0  0  0  0
  150.9573  142.7908  157.9092 C   0  0  0  0  0  0  0  0  0  0  0  0
  151.4518  141.5992  157.3978 N   0  0  0  0  0  0  0  0  0  0  0  0
  151.0514  141.1140  156.0228 C   0  0  2  0  0  0  0  0  0  0  0  0
  150.0625  142.0835  155.3669 C   0  0  0  0  0  0  0  0  0  0  0  0
  149.0941  141.1394  154.6823 C   0  0  1  0  0  0  0  0  0  0  0  0
  149.5545  140.8069  153.3857 O   0  0  0  0  0  0  0  0  0  0  0  0
  149.0960  139.9321  155.6310 C   0  0  1  0  0  0  0  0  0  0  0  0
  148.6707  138.5781  155.0369 C   0  0  0  0  0  0  0  0  0  0  0  0
  149.4335  138.2866  153.8852 O   0  0  0  0  0  0  0  0  0  0  0  0
  150.4247  139.8699  156.1445 O   0  0  0  0  0  0  0  0  0  0  0  0
  152.3573  140.8402  158.1686 C   0  0  0  0  0  0  0  0  0  0  0  0
  152.8607  139.7894  157.7736 O   0  0  0  0  0  0  0  0  0  0  0  0
  152.6838  141.3362  159.4297 N   0  0  0  0  0  0  0  0  0  0  0  0
  152.1995  142.5216  159.9885 C   0  0  0  0  0  0  0  0  0  0  0  0
  152.5610  142.8538  161.1162 O   0  0  0  0  0  0  0  0  0  0  0  0
  151.9590  140.9633  155.4367 H   0  0  0  0  0  0  0  0  0  0  0  0
  148.0997  141.5772  154.5901 H   0  0  0  0  0  0  0  0  0  0  0  0
  148.4450  140.1634  156.4754 H   0  0  0  0  0  0  0  0  0  0  0  0
  153.3289  140.7943  159.9862 H   0  0  0  0  0  0  0  0  0  0  0  0
  150.0449  145.0576  158.9472 H   0  0  0  0  0  0  0  0  0  0  0  0
  151.5258  145.2884  159.8751 H   0  0  0  0  0  0  0  0  0  0  0  0
  150.1599  144.4190  160.5861 H   0  0  0  0  0  0  0  0  0  0  0  0
  150.2823  143.3701  157.2977 H   0  0  0  0  0  0  0  0  0  0  0  0
  149.5414  142.6544  156.1370 H   0  0  0  0  0  0  0  0  0  0  0  0
  150.5689  142.7792  154.6968 H   0  0  0  0  0  0  0  0  0  0  0  0
  148.8515  140.3806  152.9189 H   0  0  0  0  0  0  0  0  0  0  0  0
  148.7730  137.7707  155.7621 H   0  0  0  0  0  0  0  0  0  0  0  0
  147.6196  138.6139  154.7497 H   0  0  0  0  0  0  0  0  0  0  0  0
  149.0592  137.5294  153.4609 H   0  0  0  0  0  0  0  0  0  0  0  0
  1  2  1  0  0  0  0
  1 22  1  0  0  0  0
  1 23  1  0  0  0  0
  1 24  1  0  0  0  0
  2 16  1  0  0  0  0
  2  3  2  0  0  0  0
  3  4  1  0  0  0  0
  3 25  1  0  0  0  0
  4  5  1  0  0  0  0
  4 13  1  0  0  0  0
  5 18  1  0  0  0  0
  5 12  1  0  0  0  0
  5  6  1  0  0  0  0
  6  7  1  0  0  0  0
  6 26  1  0  0  0  0
  6 27  1  0  0  0  0
  7 19  1  0  0  0  0
  7  8  1  0  0  0  0
  7  9  1  0  0  0  0
  8 28  1  0  0  0  0
  9 20  1  0  0  0  0
  9 10  1  0  0  0  0
  9 12  1  0  0  0  0
 10 11  1  0  0  0  0
 10 29  1  0  0  0  0
 10 30  1  0  0  0  0
 11 31  1  0  0  0  0
 13 14  2  0  0  0  0
 13 15  1  0  0  0  0
 15 21  1  0  0  0  0
 15 16  1  0  0  0  0
 16 17  2  0  0  0  0
M  END
> <s_m_source_file>
AV-unprocessed.smi

> <i_m_source_file_index>
55

> <i_lp_mmshare_version>
43012

> <i_f3d_flags>
0

> <s_epik_input>
Tz1jMVtuSF1jKD1PKW4oW2NIXWMxW0NIM10pW0NAQEhdMltDSDJdW0NAQEhdKFtPSF0pW0NAQEhdKE8yKVtDSDJdW09IXQ==

> <s_epik_cmdline>
J2VwaWtfcHl0aG9uJywgJy1waCcsICc3LjAnLCAnLXRuJywgJzgnLCAnLW1hJywgJzIwMCcsICctbWV0YWxfYmluZGluZycsICctaW1hZScsICc8aW5maWxlLm1hZT4nLCAnLW9tYWUnLCAnPG91dGZpbGUubWFlPic=

> <r_lp_tautomer_probability>
0.999537

> <r_epik_Ionization_Penalty>
0.00121888

> <r_epik_Ionization_Penalty_Charging>
0.00121876

> <r_epik_Ionization_Penalty_Neutral>
1.19946e-07

> <r_epik_State_Penalty>
0.000805124

> <r_epik_Charging_Adjusted_Penalty>
0.00202389

> <i_epik_Tot_Q>
0

> <i_epik_Tot_abs_Q>
0

> <r_epik_Metal_State_Penalty>
0.662472

> <b_epik_Metal_Only>
0

> <s_epik_Chemistry_Notes>
This compound contains an acetal/aminal-like group ( X-CH(R)-Y where X, Y are N, S, or O) that may be acid/base labile, releasing an aldehyde.

> <s_lp_Force_Field>
OPLS_2005

> <r_lp_Energy>
27.6975

> <b_lp_Chiralities_Consistent>
1

> <s_lp_Variant>
AV-unprocessed.smi:55-5

> <Gold.Version>
5.8.1

> <Gold.Id.Protein>
6NUR|6NUR_protein|mol2

> <Gold.PLP.Fitness>
41.3018

> <Gold.PLP.PLP>
-28.2287

> <Gold.PLP.part.hbond>
-4.7456

> <Gold.PLP.part.metal>
0.0000

> <Gold.PLP.part.buried>
-4.1718

> <Gold.PLP.part.nonpolar>
-19.5000

> <Gold.PLP.part.repulsive>
0.1676

> <Gold.PLP.ligand.clash>
0.0000

> <Gold.PLP.ligand.torsion>
0.0247

> <Gold.PLP.Chemscore.Hbond>
3.3764

> <Gold.PLP.Chemscore.CHOScore>
0.9970

> <Gold.PLP.Chemscore.Metal>
0.0000

> <Gold.Chemscore.Hbonds>
donor molecule, donor type, donor heavy atom, donor atom, acceptor molecule, acceptor atom, score
      L1  H     8    28       P1  7957  0.08
      L1  H    11    31       P1  7948  0.97
      P1  H  7989  7998       L1     8  0.28
      P1  H  7997  8009       L1    14  1.00
      P1  H  8011  8017       L1     8  1.00
      L1  C     3    25       P1  8028  1.00

> <Gold.PLP.Chemscore.Internal.Correction>
0.0021

> <Gold.Rescore>
     Score         DG    S(hbond)    S(metal)    S(lipo)     H(rot)  DE(clash)    DE(int)     intcor
     12.25     -14.59       3.16        0.00      47.32       2.73       1.19       1.15       ----

> <Gold.Chemscore.Fitness>
12.2461

> <Gold.Chemscore.DG>
-14.5896

> <Gold.Chemscore.ZeroCoef>
-5.4800

> <Gold.Chemscore.Hbond>
3.1587

> <Gold.Chemscore.Metal>
0.0000

> <Gold.Chemscore.Lipo>
47.3188

> <Gold.Chemscore.Internal_Hbond>
0.0000

> <Gold.Chemscore.DEClash>
1.1908

> <Gold.Chemscore.DEInternal>
1.1527

> <Gold.Chemscore.Rot>
2.7253

> <Gold.Chemscore.Internal.Correction>
   9.000000E+99

> <Gold.Chemscore.Hbonds>
donor molecule, donor type, donor heavy atom, donor atom, acceptor molecule, acceptor atom, score
      L1  H     8    28       P1  7957  0.10
      L1  H    11    31       P1  7948  0.85
      P1  H  7989  7998       L1     8  0.17
      P1  H  7997  8009       L1    14  0.81
      P1  H  8011  8017       L1     8  0.23

> <Gold.Chemscore.Hbond.Weighted>
-10.5502

> <Gold.Chemscore.Metal.Weighted>
-0.0000

> <Gold.Chemscore.Lipo.Weighted>
-5.5363

> <Gold.Chemscore.Internal_Hbond.Weighted>
0.0000

> <Gold.Chemscore.DEClash.Weighted>
1.1908

> <Gold.Chemscore.DEInternal.Weighted>
1.1527

> <Gold.Chemscore.Rot.Weighted>
6.9769

> <Gold.Chemscore.Internal.Correction.Weighted>
   9.000000E+99

> <Gold.Protein.RotatedTorsions>
[ 6907 6896 6895 6894 ] final  -39.05 input  -60.11 | X-H torsion
[ 7974 7965 7964 7962 ] final  -98.75 input  175.53 | X-H torsion
[ 8008 7997 7996 7995 ] final  155.53 input   59.86 | X-H torsion
[ 10167 10162 10161 10158 ] final -152.22 input  -65.29 | X-H torsion
[ 10718 10713 10712 10709 ] final  165.00 input   66.30 | X-H torsion
[ 10763 10752 10751 10750 ] final  -56.55 input  -60.55 | X-H torsion
[ 11005 11000 10999 10996 ] final -165.92 input  -57.11 | X-H torsion

> <Gold.Protein.ActiveResidues>
 VAL166  LYS551  ARG553  GLY616  TRP617  ASP618  TYR619  PRO620  LYS621  CYS622 
 ASP623  PHE694  ASN695  SER759  ASP760  ASP761  ALA762  ILE779  LEU786  VAL792 
 PHE793  MET794  SER795  GLU796  ALA797  LYS798  CYS799  TRP800  GLU811  SER814 

> <Gold.Protein.RotatedAtoms>
  150.9951  134.9276  159.7921 H   0  0  0  0  0  0  0  0  0  0  0  0  # atno 6907 bound_to 6896
  152.5262  134.3230  159.9165 H   0  0  0  0  0  0  0  0  0  0  0  0  # atno 6908 bound_to 6896
  151.3236  133.3988  159.2691 H   0  0  0  0  0  0  0  0  0  0  0  0  # atno 6909 bound_to 6896
  145.3165  140.9412  143.2740 H   0  0  0  0  0  0  0  0  0  0  0  0  # atno 7974 bound_to 7965
  156.2473  140.1937  156.6815 H   0  0  0  0  0  0  0  0  0  0  0  0  # atno 8008 bound_to 7997
  154.6318  140.0595  156.9768 H   0  0  0  0  0  0  0  0  0  0  0  0  # atno 8009 bound_to 7997
  155.1698  140.3267  155.4397 H   0  0  0  0  0  0  0  0  0  0  0  0  # atno 8010 bound_to 7997
  139.7200  143.8972  152.2500 H   0  0  0  0  0  0  0  0  0  0  0  0  # atno 10167 bound_to 10162
  157.0863  131.0405  151.2555 H   0  0  0  0  0  0  0  0  0  0  0  0  # atno 10718 bound_to 10713
  154.2084  135.6399  153.5107 H   0  0  0  0  0  0  0  0  0  0  0  0  # atno 10763 bound_to 10752
  152.9995  135.5468  154.6242 H   0  0  0  0  0  0  0  0  0  0  0  0  # atno 10764 bound_to 10752
  154.5672  135.2914  155.0836 H   0  0  0  0  0  0  0  0  0  0  0  0  # atno 10765 bound_to 10752
  140.5703  134.5245  157.5160 H   0  0  0  0  0  0  0  0  0  0  0  0  # atno 11005 bound_to 11000
  144.8974  139.4695  143.6649 LP  0  0  0  0  0  0  0  0  0  0  0  0  # atno 17320 bound_to 7965
  146.3098  139.7707  142.9028 LP  0  0  0  0  0  0  0  0  0  0  0  0  # atno 17321 bound_to 7965
  139.8865  144.6989  150.8818 LP  0  0  0  0  0  0  0  0  0  0  0  0  # atno 17342 bound_to 10162
  140.7752  143.3620  151.1811 LP  0  0  0  0  0  0  0  0  0  0  0  0  # atno 17343 bound_to 10162
  157.4758  130.7736  149.7367 LP  0  0  0  0  0  0  0  0  0  0  0  0  # atno 17370 bound_to 10713
  155.9910  130.3941  150.3004 LP  0  0  0  0  0  0  0  0  0  0  0  0  # atno 17371 bound_to 10713
  139.9365  134.7866  156.0789 LP  0  0  0  0  0  0  0  0  0  0  0  0  # atno 17394 bound_to 11000
  141.1060  133.6660  156.2866 LP  0  0  0  0  0  0  0  0  0  0  0  0  # atno 17395 bound_to 11000

$$$$
