#       Name:                AV-unprocessed.smi:3329
#       Creating user name   scv26
#       Creation time:       Fri Mar 27 19:15:24 2020


#       File generated by GOLD software.
#

@<TRIPOS>MOLECULE
AV-unprocessed.smi:3329
    46    47     1
SMALL
NO_CHARGES


@<TRIPOS>ATOM
      1 ****        -5.0602   5.6440   1.7139 C.3            1 S1                 0.0000
      2 ****        -4.3458   4.6007   0.9040 C.2            1 S1                 0.0000
      3 ****        -3.8963   4.6943  -0.4441 C.2            1 S1                 0.0000
      4 ****        -3.2961   3.5924  -0.8644 N.2            1 S1                 0.0000
      5 ****        -3.3430   2.7588   0.1962 N.pl3          1 S1                 0.0000
      6 ****        -2.7636   1.4336   0.0978 C.3            1 S1                 0.0000
      7 ****        -1.2417   1.4650   0.3001 C.3            1 S1                 0.0000
      8 ****        -0.7151   0.1123   0.2067 N.3            1 S1                 0.0000
      9 ****         0.7355   0.1048   0.4143 C.3            1 S1                 0.0000
     10 ****         1.2896  -1.3180   0.3890 C.2            1 S1                 0.0000
     11 ****         1.0926  -2.0674   1.3444 O.2            1 S1                 0.0000
     12 ****         1.9683  -1.6732  -0.7154 N.am           1 S1                 0.0000
     13 ****         2.5900  -2.9652  -1.0182 C.3            1 S1                 0.0000
     14 ****         1.4972  -4.0452  -1.1482 C.3            1 S1                 0.0000
     15 ****         3.2444  -2.8364  -2.3336 C.1            1 S1                 0.0000
     16 ****         3.7554  -2.7331  -3.3670 N.1            1 S1                 0.0000
     17 ****         3.6242  -3.4036   0.0250 C.3            1 S1                 0.0000
     18 ****         5.0582  -2.9239   0.0079 C.3            1 S1                 0.0000
     19 ****         4.7409  -4.3713  -0.2984 C.3            1 S1                 0.0000
     20 ****        -3.9716   3.3405   1.2761 C.2            1 S1                 0.0000
     21 ****        -5.0545   6.6157   1.2197 H              1 S1                 0.0000
     22 ****        -4.5993   5.7797   2.6925 H              1 S1                 0.0000
     23 ****        -6.1031   5.3759   1.8834 H              1 S1                 0.0000
     24 ****        -3.9868   5.5275  -1.1256 H              1 S1                 0.0000
     25 ****        -3.2339   0.7958   0.8476 H              1 S1                 0.0000
     26 ****        -3.0148   1.0142  -0.8778 H              1 S1                 0.0000
     27 ****        -0.7746   2.0968  -0.4571 H              1 S1                 0.0000
     28 ****        -1.0034   1.8899   1.2764 H              1 S1                 0.0000
     29 ****        -0.9610  -0.2772  -0.6923 H              1 S1                 0.0000
     30 ****         1.2225   0.7113  -0.3517 H              1 S1                 0.0000
     31 ****         0.9751   0.5520   1.3803 H              1 S1                 0.0000
     32 ****         2.0642  -0.9686  -1.4324 H              1 S1                 0.0000
     33 ****         1.9231  -4.9942  -1.4757 H              1 S1                 0.0000
     34 ****         0.7411  -3.7586  -1.8801 H              1 S1                 0.0000
     35 ****         0.9888  -4.2312  -0.2018 H              1 S1                 0.0000
     36 ****         3.1981  -3.5405   1.0166 H              1 S1                 0.0000
     37 ****         5.3833  -2.2943  -0.8176 H              1 S1                 0.0000
     38 ****         5.5219  -2.7039   0.9673 H              1 S1                 0.0000
     39 ****         4.9925  -5.1121   0.4579 H              1 S1                 0.0000
     40 ****         4.8564  -4.7048  -1.3275 H              1 S1                 0.0000
     41 ****        -4.0976   2.8155   2.2114 H              1 S1                 0.0000
     42 ****        -2.8977   3.4169  -1.7646 LP             1 S1                 0.0000
     43 ****        -1.1189  -0.4540   0.9252 LP             1 S1                 0.0000
     44 ****         0.5711  -1.7442   2.1341 LP             1 S1                 0.0000
     45 ****         1.4539  -2.9997   1.3314 LP             1 S1                 0.0000
     46 ****         4.1969  -2.6438  -4.2598 LP             1 S1                 0.0000
@<TRIPOS>BOND
    1    1    2 1     
    2    1   21 1     
    3    1   22 1     
    4    1   23 1     
    5    2   20 2     
    6    2    3 1     
    7    3    4 2     
    8    3   24 1     
    9    4    5 1     
   10    5    6 1     
   11    5   20 1     
   12    6    7 1     
   13    6   25 1     
   14    6   26 1     
   15    7    8 1     
   16    7   27 1     
   17    7   28 1     
   18    8    9 1     
   19    8   29 1     
   20    9   10 1     
   21    9   30 1     
   22    9   31 1     
   23   10   11 2     
   24   10   12 am    
   25   12   13 1     
   26   12   32 1     
   27   13   14 1     
   28   13   15 1     
   29   13   17 1     
   30   14   33 1     
   31   14   34 1     
   32   14   35 1     
   33   15   16 3     
   34   17   19 1     
   35   17   18 1     
   36   17   36 1     
   37   18   19 1     
   38   18   37 1     
   39   18   38 1     
   40   19   39 1     
   41   19   40 1     
   42   20   41 1     
   43    4   42 1     
   44    8   43 1     
   45   11   44 1     
   46   11   45 1     
   47   16   46 1     
@<TRIPOS>SUBSTRUCTURE
      1 S1             1
@<TRIPOS>SET
LONE_PAIRS      STATIC     ATOMS    <user>   **** ""
5 42 43 44 45 46
DONOR_HYDROGENS      STATIC     ATOMS    <user>   **** ""
2 29 32
ATOM$BLUE        STATIC     ATOMS    COLORGROUP SYSTEM
5 42 43 44 45 46
ATOM$RED        STATIC     ATOMS    COLORGROUP SYSTEM
2 29 32
