AV-unprocessed.smi:1797|AV-procd|sdf|7257|dock8
  -GOLD-   22720 8513D 1   1.00000     0.00000
 Structure written by MMmdl.
 29 30  0  0  0  0  0  0  0  0  2 V2000
  152.3280  143.5284  161.0109 C   0  0  0  0  0  0  0  0  0  0  0  0
  152.1508  142.5926  159.8647 C   0  0  0  0  0  0  0  0  0  0  0  0
  151.0163  142.5131  159.1653 N   0  0  0  0  0  0  0  0  0  0  0  0
  151.0935  141.5718  158.1490 N   0  0  0  0  0  0  0  0  0  0  0  0
  152.2773  140.9441  158.1028 C   0  0  0  0  0  0  0  0  0  0  0  0
  152.5575  139.9907  157.1950 N   0  5  0  0  0  0  0  0  0  0  0  0
  151.8953  139.8870  156.0128 C   0  0  0  0  0  0  0  0  0  0  0  0
  152.3883  139.3784  155.0068 O   0  0  0  0  0  0  0  0  0  0  0  0
  150.6388  140.3696  155.9507 N   0  0  0  0  0  0  0  0  0  0  0  0
  149.7575  140.3452  154.7873 C   0  0  2  0  0  0  0  0  0  0  0  0
  148.4295  141.0567  155.0876 C   0  0  0  0  0  0  0  0  0  0  0  0
  147.5012  141.0331  153.8626 C   0  0  0  0  0  0  0  0  0  0  0  0
  147.4218  139.6595  153.1792 C   0  0  0  0  0  0  0  0  0  0  0  0
  146.4976  139.4229  152.4042 O   0  0  0  0  0  0  0  0  0  0  0  0
  148.3884  138.7553  153.4162 N   0  0  0  0  0  0  0  0  0  0  0  0
  149.4819  138.8872  154.3785 C   0  0  0  0  0  0  0  0  0  0  0  0
  153.4164  141.5008  159.3281 S   0  0  0  0  0  0  0  0  0  0  0  0
  151.8690  143.1104  161.9068 H   0  0  0  0  0  0  0  0  0  0  0  0
  151.8609  144.4888  160.7911 H   0  0  0  0  0  0  0  0  0  0  0  0
  153.3881  143.6933  161.2041 H   0  0  0  0  0  0  0  0  0  0  0  0
  150.2658  140.7897  156.7894 H   0  0  0  0  0  0  0  0  0  0  0  0
  150.2500  140.8487  153.9528 H   0  0  0  0  0  0  0  0  0  0  0  0
  147.9340  140.5776  155.9335 H   0  0  0  0  0  0  0  0  0  0  0  0
  148.6107  142.0907  155.3832 H   0  0  0  0  0  0  0  0  0  0  0  0
  146.4997  141.3574  154.1469 H   0  0  0  0  0  0  0  0  0  0  0  0
  147.8616  141.7477  153.1219 H   0  0  0  0  0  0  0  0  0  0  0  0
  148.3274  137.8745  152.9263 H   0  0  0  0  0  0  0  0  0  0  0  0
  150.3819  138.4352  153.9604 H   0  0  0  0  0  0  0  0  0  0  0  0
  149.2145  138.2968  155.2562 H   0  0  0  0  0  0  0  0  0  0  0  0
  1  2  1  0  0  0  0
  1 18  1  0  0  0  0
  1 19  1  0  0  0  0
  1 20  1  0  0  0  0
  2 17  1  0  0  0  0
  2  3  2  0  0  0  0
  3  4  1  0  0  0  0
  4  5  2  0  0  0  0
  5  6  1  0  0  0  0
  5 17  1  0  0  0  0
  6  7  1  0  0  0  0
  7  8  2  0  0  0  0
  7  9  1  0  0  0  0
  9 10  1  0  0  0  0
  9 21  1  0  0  0  0
 10 16  1  0  0  0  0
 10 11  1  0  0  0  0
 10 22  1  0  0  0  0
 11 12  1  0  0  0  0
 11 23  1  0  0  0  0
 11 24  1  0  0  0  0
 12 13  1  0  0  0  0
 12 25  1  0  0  0  0
 12 26  1  0  0  0  0
 13 14  2  0  0  0  0
 13 15  1  0  0  0  0
 15 16  1  0  0  0  0
 15 27  1  0  0  0  0
 16 28  1  0  0  0  0
 16 29  1  0  0  0  0
M  CHG  1   6  -1
M  END
> <s_m_source_file>
AV-unprocessed.smi

> <i_m_source_file_index>
1797

> <i_lp_mmshare_version>
43012

> <i_f3d_flags>
0

> <s_epik_input>
W0NIM11jMW5uYyhzMSlbTkhdQyg9TylbTkhdW0NAQEhdMltDSDJdW0NIMl1DKD1PKVtOSF1bQ0gyXTI=

> <s_epik_cmdline>
J2VwaWtfcHl0aG9uJywgJy1waCcsICc3LjAnLCAnLXRuJywgJzgnLCAnLW1hJywgJzIwMCcsICctbWV0YWxfYmluZGluZycsICctaW1hZScsICc8aW5maWxlLm1hZT4nLCAnLW9tYWUnLCAnPG91dGZpbGUubWFlPic=

> <r_lp_tautomer_probability>
1

> <r_epik_Ionization_Penalty>
3.31792

> <r_epik_Ionization_Penalty_Charging>
3.17379

> <r_epik_Ionization_Penalty_Neutral>
0.144127

> <r_epik_State_Penalty>
3.17099

> <r_epik_Charging_Adjusted_Penalty>
6.34478

> <i_epik_Tot_Q>
-1

> <i_epik_Tot_abs_Q>
1

> <r_epik_Metal_State_Penalty>
0.468583

> <b_epik_Metal_Only>
1

> <s_lp_Force_Field>
OPLS_2005

> <r_lp_Energy>
8.3623

> <b_lp_Chiralities_Consistent>
1

> <s_lp_Variant>
AV-unprocessed.smi:1797-3

> <Gold.Version>
5.8.1

> <Gold.Id.Protein>
6NUR|6NUR_protein|mol2

> <Gold.PLP.Fitness>
41.2717

> <Gold.PLP.PLP>
-30.6847

> <Gold.PLP.part.hbond>
-4.3596

> <Gold.PLP.part.metal>
0.0000

> <Gold.PLP.part.buried>
-2.2948

> <Gold.PLP.part.nonpolar>
-24.6143

> <Gold.PLP.part.repulsive>
1.3761

> <Gold.PLP.ligand.clash>
0.0000

> <Gold.PLP.ligand.torsion>
0.2640

> <Gold.PLP.Chemscore.Hbond>
3.7040

> <Gold.PLP.Chemscore.CHOScore>
0.0000

> <Gold.PLP.Chemscore.Metal>
0.0000

> <Gold.Chemscore.Hbonds>
donor molecule, donor type, donor heavy atom, donor atom, acceptor molecule, acceptor atom, score
      L1  H    15    27       P1  7948  0.98
      P1  H  7989  7998       L1     8  0.36
      P1  H  7997  8010       L1     6  1.70

> <Gold.PLP.Chemscore.Internal.Correction>
0.0030

> <Gold.Rescore>
     Score         DG    S(hbond)    S(metal)    S(lipo)     H(rot)  DE(clash)    DE(int)     intcor
     13.65     -15.67       1.77        0.00      58.50       1.00       0.76       1.25       ----

> <Gold.Chemscore.Fitness>
13.6526

> <Gold.Chemscore.DG>
-15.6680

> <Gold.Chemscore.ZeroCoef>
-5.4800

> <Gold.Chemscore.Hbond>
1.7676

> <Gold.Chemscore.Metal>
0.0000

> <Gold.Chemscore.Lipo>
58.4978

> <Gold.Chemscore.Internal_Hbond>
0.0000

> <Gold.Chemscore.DEClash>
0.7615

> <Gold.Chemscore.DEInternal>
1.2540

> <Gold.Chemscore.Rot>
1.0000

> <Gold.Chemscore.Internal.Correction>
   9.000000E+99

> <Gold.Chemscore.Hbonds>
donor molecule, donor type, donor heavy atom, donor atom, acceptor molecule, acceptor atom, score
      L1  H    15    27       P1  7948  0.92
      P1  H  7989  7998       L1     8  0.08
      P1  H  7997  8010       L1     6  0.12

> <Gold.Chemscore.Hbond.Weighted>
-5.9038

> <Gold.Chemscore.Metal.Weighted>
-0.0000

> <Gold.Chemscore.Lipo.Weighted>
-6.8442

> <Gold.Chemscore.Internal_Hbond.Weighted>
0.0000

> <Gold.Chemscore.DEClash.Weighted>
0.7615

> <Gold.Chemscore.DEInternal.Weighted>
1.2540

> <Gold.Chemscore.Rot.Weighted>
2.5600

> <Gold.Chemscore.Internal.Correction.Weighted>
   9.000000E+99

> <Gold.Protein.RotatedTorsions>
[ 6907 6896 6895 6894 ] final  154.82 input  -60.11 | X-H torsion
[ 7974 7965 7964 7962 ] final   60.60 input  175.53 | X-H torsion
[ 8008 7997 7996 7995 ] final   71.38 input   59.86 | X-H torsion
[ 10167 10162 10161 10158 ] final -102.73 input  -65.29 | X-H torsion
[ 10718 10713 10712 10709 ] final  114.03 input   66.30 | X-H torsion
[ 10763 10752 10751 10750 ] final  135.54 input  -60.55 | X-H torsion
[ 11005 11000 10999 10996 ] final -178.00 input  -57.11 | X-H torsion

> <Gold.Protein.ActiveResidues>
 VAL166  LYS551  ARG553  GLY616  TRP617  ASP618  TYR619  PRO620  LYS621  CYS622 
 ASP623  PHE694  ASN695  SER759  ASP760  ASP761  ALA762  ILE779  LEU786  VAL792 
 PHE793  MET794  SER795  GLU796  ALA797  LYS798  CYS799  TRP800  GLU811  SER814 

> <Gold.Protein.RotatedAtoms>
  152.0531  133.4028  159.4385 H   0  0  0  0  0  0  0  0  0  0  0  0  # atno 6907 bound_to 6896
  150.6869  134.3286  159.4826 H   0  0  0  0  0  0  0  0  0  0  0  0  # atno 6908 bound_to 6896
  152.1098  134.9282  160.0617 H   0  0  0  0  0  0  0  0  0  0  0  0  # atno 6909 bound_to 6896
  145.8942  139.3533  143.0631 H   0  0  0  0  0  0  0  0  0  0  0  0  # atno 7974 bound_to 7965
  155.7530  140.3488  155.5160 H   0  0  0  0  0  0  0  0  0  0  0  0  # atno 8008 bound_to 7997
  155.8986  140.1030  157.1387 H   0  0  0  0  0  0  0  0  0  0  0  0  # atno 8009 bound_to 7997
  154.4041  140.1290  156.4394 H   0  0  0  0  0  0  0  0  0  0  0  0  # atno 8010 bound_to 7997
  140.2276  143.3630  152.0915 H   0  0  0  0  0  0  0  0  0  0  0  0  # atno 10167 bound_to 10162
  157.6304  131.0992  150.7127 H   0  0  0  0  0  0  0  0  0  0  0  0  # atno 10718 bound_to 10713
  153.8417  135.3090  155.3426 H   0  0  0  0  0  0  0  0  0  0  0  0  # atno 10763 bound_to 10752
  154.7930  135.4772  154.0098 H   0  0  0  0  0  0  0  0  0  0  0  0  # atno 10764 bound_to 10752
  153.1572  135.6854  153.8887 H   0  0  0  0  0  0  0  0  0  0  0  0  # atno 10765 bound_to 10752
  140.4346  134.6487  157.4728 H   0  0  0  0  0  0  0  0  0  0  0  0  # atno 11005 bound_to 11000
  145.8871  140.9327  143.0571 LP  0  0  0  0  0  0  0  0  0  0  0  0  # atno 17320 bound_to 7965
  144.6732  140.0856  143.7467 LP  0  0  0  0  0  0  0  0  0  0  0  0  # atno 17321 bound_to 7965
  139.5121  144.6912  151.5754 LP  0  0  0  0  0  0  0  0  0  0  0  0  # atno 17342 bound_to 10162
  140.6209  143.9260  150.6525 LP  0  0  0  0  0  0  0  0  0  0  0  0  # atno 17343 bound_to 10162
  156.7468  130.4756  149.5465 LP  0  0  0  0  0  0  0  0  0  0  0  0  # atno 17370 bound_to 10713
  156.1504  130.6306  151.0588 LP  0  0  0  0  0  0  0  0  0  0  0  0  # atno 17371 bound_to 10713
  140.0111  134.6689  155.9380 LP  0  0  0  0  0  0  0  0  0  0  0  0  # atno 17394 bound_to 11000
  141.1731  133.6538  156.4726 LP  0  0  0  0  0  0  0  0  0  0  0  0  # atno 17395 bound_to 11000

$$$$
