AV-unprocessed.smi:3335|AV-procd|sdf|12851|dock10
  -GOLD-   2272019243D 1   1.00000     0.00000
 Structure written by MMmdl.
 46 47  0  0  0  0  0  0  0  0  1 V2000
  152.3000  144.5387  159.3469 C   0  0  0  0  0  0  0  0  0  0  0  0
  151.9662  143.2262  158.6997 C   0  0  0  0  0  0  0  0  0  0  0  0
  151.4680  142.9975  157.3862 C   0  0  0  0  0  0  0  0  0  0  0  0
  151.2374  141.7186  157.1397 N   0  0  0  0  0  0  0  0  0  0  0  0
  151.6053  141.0803  158.2736 N   0  0  0  0  0  0  0  0  0  0  0  0
  151.4389  139.6347  158.4040 C   0  0  2  0  0  0  0  0  0  0  0  0
  152.4161  138.8911  157.4714 C   0  0  0  0  0  0  0  0  0  0  0  0
  149.9581  139.2032  158.1992 C   0  0  1  0  0  0  0  0  0  0  0  0
  149.4210  139.5531  156.8010 C   0  0  0  0  0  0  0  0  0  0  0  0
  149.8467  137.7506  158.3303 N   0  0  0  0  0  0  0  0  0  0  0  0
  148.4850  137.2861  158.6514 C   0  0  1  0  0  0  0  0  0  0  0  0
  147.6367  137.1893  157.3706 C   0  0  0  0  0  0  0  0  0  0  0  0
  148.5308  135.9221  159.3692 C   0  0  0  0  0  0  0  0  0  0  0  0
  149.2229  135.0181  158.8969 O   0  0  0  0  0  0  0  0  0  0  0  0
  147.8260  135.7514  160.5098 N   0  0  0  0  0  0  0  0  0  0  0  0
  146.9564  136.7827  161.0736 C   0  0  0  0  0  0  0  0  0  0  0  0
  146.1693  136.0992  162.1916 C   0  0  0  0  0  0  0  0  0  0  0  0
  147.0718  134.9562  162.6312 C   0  0  0  0  0  0  0  0  0  0  0  0
  147.8131  134.5573  161.3558 C   0  0  0  0  0  0  0  0  0  0  0  0
  152.0499  141.9705  159.2294 C   0  0  0  0  0  0  0  0  0  0  0  0
  151.9140  145.3827  158.7749 H   0  0  0  0  0  0  0  0  0  0  0  0
  153.3768  144.6780  159.4420 H   0  0  0  0  0  0  0  0  0  0  0  0
  151.8745  144.6111  160.3482 H   0  0  0  0  0  0  0  0  0  0  0  0
  151.2472  143.7221  156.6165 H   0  0  0  0  0  0  0  0  0  0  0  0
  151.7247  139.3831  159.4266 H   0  0  0  0  0  0  0  0  0  0  0  0
  152.4523  137.8255  157.6961 H   0  0  0  0  0  0  0  0  0  0  0  0
  153.4311  139.2736  157.5841 H   0  0  0  0  0  0  0  0  0  0  0  0
  152.1338  139.0000  156.4238 H   0  0  0  0  0  0  0  0  0  0  0  0
  149.3254  139.7101  158.9298 H   0  0  0  0  0  0  0  0  0  0  0  0
  149.3792  140.6308  156.6457 H   0  0  0  0  0  0  0  0  0  0  0  0
  148.4069  139.1756  156.6647 H   0  0  0  0  0  0  0  0  0  0  0  0
  150.0431  139.1255  156.0137 H   0  0  0  0  0  0  0  0  0  0  0  0
  150.5116  137.4425  159.0253 H   0  0  0  0  0  0  0  0  0  0  0  0
  148.0274  138.0082  159.3257 H   0  0  0  0  0  0  0  0  0  0  0  0
  146.6311  136.8253  157.5820 H   0  0  0  0  0  0  0  0  0  0  0  0
  148.0873  136.5104  156.6456 H   0  0  0  0  0  0  0  0  0  0  0  0
  147.5321  138.1619  156.8896 H   0  0  0  0  0  0  0  0  0  0  0  0
  147.5741  137.5871  161.4759 H   0  0  0  0  0  0  0  0  0  0  0  0
  146.2873  137.2099  160.3249 H   0  0  0  0  0  0  0  0  0  0  0  0
  145.9157  136.7772  163.0071 H   0  0  0  0  0  0  0  0  0  0  0  0
  145.2389  135.6947  161.7911 H   0  0  0  0  0  0  0  0  0  0  0  0
  147.7857  135.3192  163.3719 H   0  0  0  0  0  0  0  0  0  0  0  0
  146.5198  134.1275  163.0758 H   0  0  0  0  0  0  0  0  0  0  0  0
  147.2729  133.7609  160.8448 H   0  0  0  0  0  0  0  0  0  0  0  0
  148.8167  134.1974  161.5837 H   0  0  0  0  0  0  0  0  0  0  0  0
  152.3660  141.6412  160.2082 H   0  0  0  0  0  0  0  0  0  0  0  0
  1  2  1  0  0  0  0
  1 21  1  0  0  0  0
  1 22  1  0  0  0  0
  1 23  1  0  0  0  0
  2 20  2  0  0  0  0
  2  3  1  0  0  0  0
  3  4  2  0  0  0  0
  3 24  1  0  0  0  0
  4  5  1  0  0  0  0
  5  6  1  0  0  0  0
  5 20  1  0  0  0  0
  6  7  1  0  0  0  0
  6  8  1  0  0  0  0
  6 25  1  0  0  0  0
  7 26  1  0  0  0  0
  7 27  1  0  0  0  0
  7 28  1  0  0  0  0
  8  9  1  0  0  0  0
  8 10  1  0  0  0  0
  8 29  1  0  0  0  0
  9 30  1  0  0  0  0
  9 31  1  0  0  0  0
  9 32  1  0  0  0  0
 10 11  1  0  0  0  0
 10 33  1  0  0  0  0
 11 12  1  0  0  0  0
 11 13  1  0  0  0  0
 11 34  1  0  0  0  0
 12 35  1  0  0  0  0
 12 36  1  0  0  0  0
 12 37  1  0  0  0  0
 13 14  2  0  0  0  0
 13 15  1  0  0  0  0
 15 19  1  0  0  0  0
 15 16  1  0  0  0  0
 16 17  1  0  0  0  0
 16 38  1  0  0  0  0
 16 39  1  0  0  0  0
 17 18  1  0  0  0  0
 17 40  1  0  0  0  0
 17 41  1  0  0  0  0
 18 19  1  0  0  0  0
 18 42  1  0  0  0  0
 18 43  1  0  0  0  0
 19 44  1  0  0  0  0
 19 45  1  0  0  0  0
 20 46  1  0  0  0  0
M  END
> <s_m_source_file>
AV-unprocessed.smi

> <i_m_source_file_index>
3335

> <i_lp_mmshare_version>
43012

> <i_f3d_flags>
0

> <s_epik_input>
W0NIM11jMVtjSF1ubihbY0hdMSlbQ0BIXShbQ0gzXSlbQ0BIXShbQ0gzXSlbTkhdW0NASF0oW0NIM10pQyg9TylOMltDSDJdW0NIMl1bQ0gyXVtDSDJdMg==

> <s_epik_cmdline>
J2VwaWtfcHl0aG9uJywgJy1waCcsICc3LjAnLCAnLXRuJywgJzgnLCAnLW1hJywgJzIwMCcsICctbWV0YWxfYmluZGluZycsICctaW1hZScsICc8aW5maWxlLm1hZT4nLCAnLW9tYWUnLCAnPG91dGZpbGUubWFlPic=

> <r_lp_tautomer_probability>
1

> <r_epik_Ionization_Penalty>
0.918803

> <r_epik_Ionization_Penalty_Charging>
0

> <r_epik_Ionization_Penalty_Neutral>
0.918803

> <r_epik_State_Penalty>
0.958258

> <r_epik_Charging_Adjusted_Penalty>
0.958258

> <i_epik_Tot_Q>
0

> <i_epik_Tot_abs_Q>
0

> <r_epik_Metal_State_Penalty>
0.956786

> <b_epik_Metal_Only>
0

> <s_lp_Force_Field>
OPLS_2005

> <r_lp_Energy>
36.8756

> <b_lp_Chiralities_Consistent>
1

> <s_lp_Variant>
AV-unprocessed.smi:3335-15

> <Gold.Version>
5.8.1

> <Gold.Id.Protein>
6NUR|6NUR_protein|mol2

> <Gold.PLP.Fitness>
40.3386

> <Gold.PLP.PLP>
-35.7929

> <Gold.PLP.part.hbond>
-1.0000

> <Gold.PLP.part.metal>
0.0000

> <Gold.PLP.part.buried>
-4.6279

> <Gold.PLP.part.nonpolar>
-29.7947

> <Gold.PLP.part.repulsive>
0.0612

> <Gold.PLP.ligand.clash>
0.0000

> <Gold.PLP.ligand.torsion>
0.7950

> <Gold.PLP.Chemscore.Hbond>
1.0000

> <Gold.PLP.Chemscore.CHOScore>
1.0000

> <Gold.PLP.Chemscore.Metal>
0.0000

> <Gold.Chemscore.Hbonds>
donor molecule, donor type, donor heavy atom, donor atom, acceptor molecule, acceptor atom, score
      P1  H  6896  6909       L1    14  1.00
      L1  C     3    24       P1  8028  0.54

> <Gold.PLP.Chemscore.Internal.Correction>
0.1357

> <Gold.Rescore>
     Score         DG    S(hbond)    S(metal)    S(lipo)     H(rot)  DE(clash)    DE(int)     intcor
     13.28     -15.69       0.99        0.00      94.41       1.62       0.00       2.41       ----

> <Gold.Chemscore.Fitness>
13.2767

> <Gold.Chemscore.DG>
-15.6887

> <Gold.Chemscore.ZeroCoef>
-5.4800

> <Gold.Chemscore.Hbond>
0.9915

> <Gold.Chemscore.Metal>
0.0000

> <Gold.Chemscore.Lipo>
94.4055

> <Gold.Chemscore.Internal_Hbond>
0.0000

> <Gold.Chemscore.DEClash>
0.0018

> <Gold.Chemscore.DEInternal>
2.4102

> <Gold.Chemscore.Rot>
1.6204

> <Gold.Chemscore.Internal.Correction>
   9.000000E+99

> <Gold.Chemscore.Hbonds>
donor molecule, donor type, donor heavy atom, donor atom, acceptor molecule, acceptor atom, score
      P1  H  6896  6909       L1    14  0.99

> <Gold.Chemscore.Hbond.Weighted>
-3.3115

> <Gold.Chemscore.Metal.Weighted>
-0.0000

> <Gold.Chemscore.Lipo.Weighted>
-11.0454

> <Gold.Chemscore.Internal_Hbond.Weighted>
0.0000

> <Gold.Chemscore.DEClash.Weighted>
0.0018

> <Gold.Chemscore.DEInternal.Weighted>
2.4102

> <Gold.Chemscore.Rot.Weighted>
4.1482

> <Gold.Chemscore.Internal.Correction.Weighted>
   9.000000E+99

> <Gold.Protein.RotatedTorsions>
[ 6907 6896 6895 6894 ] final   29.13 input  -60.11 | X-H torsion
[ 7974 7965 7964 7962 ] final -179.38 input  175.53 | X-H torsion
[ 8008 7997 7996 7995 ] final -108.43 input   59.86 | X-H torsion
[ 10167 10162 10161 10158 ] final  161.37 input  -65.29 | X-H torsion
[ 10718 10713 10712 10709 ] final  -27.81 input   66.30 | X-H torsion
[ 10763 10752 10751 10750 ] final  -46.36 input  -60.55 | X-H torsion
[ 11005 11000 10999 10996 ] final  -48.34 input  -57.11 | X-H torsion

> <Gold.Protein.ActiveResidues>
 VAL166  LYS551  ARG553  GLY616  TRP617  ASP618  TYR619  PRO620  LYS621  CYS622 
 ASP623  PHE694  ASN695  SER759  ASP760  ASP761  ALA762  ILE779  LEU786  VAL792 
 PHE793  MET794  SER795  GLU796  ALA797  LYS798  CYS799  TRP800  GLU811  SER814 

> <Gold.Protein.RotatedAtoms>
  152.0271  134.9789  160.0571 H   0  0  0  0  0  0  0  0  0  0  0  0  # atno 6907 bound_to 6896
  152.1280  133.4387  159.4715 H   0  0  0  0  0  0  0  0  0  0  0  0  # atno 6908 bound_to 6896
  150.6854  134.2373  159.4501 H   0  0  0  0  0  0  0  0  0  0  0  0  # atno 6909 bound_to 6896
  144.7136  140.0726  143.6429 H   0  0  0  0  0  0  0  0  0  0  0  0  # atno 7974 bound_to 7965
  154.9442  140.0402  157.2112 H   0  0  0  0  0  0  0  0  0  0  0  0  # atno 8008 bound_to 7997
  154.8040  140.2856  155.5879 H   0  0  0  0  0  0  0  0  0  0  0  0  # atno 8009 bound_to 7997
  156.2964  140.2549  156.2914 H   0  0  0  0  0  0  0  0  0  0  0  0  # atno 8010 bound_to 7997
  139.4848  144.4543  151.8789 H   0  0  0  0  0  0  0  0  0  0  0  0  # atno 10167 bound_to 10162
  156.4333  130.4449  149.7102 H   0  0  0  0  0  0  0  0  0  0  0  0  # atno 10718 bound_to 10713
  154.0437  135.6640  153.4792 H   0  0  0  0  0  0  0  0  0  0  0  0  # atno 10763 bound_to 10752
  153.0491  135.5095  154.7818 H   0  0  0  0  0  0  0  0  0  0  0  0  # atno 10764 bound_to 10752
  154.6802  135.3043  154.9589 H   0  0  0  0  0  0  0  0  0  0  0  0  # atno 10765 bound_to 10752
  141.0695  133.6683  156.3427 H   0  0  0  0  0  0  0  0  0  0  0  0  # atno 11005 bound_to 11000
  145.9771  139.2913  143.1064 LP  0  0  0  0  0  0  0  0  0  0  0  0  # atno 17320 bound_to 7965
  145.9052  140.9216  143.0482 LP  0  0  0  0  0  0  0  0  0  0  0  0  # atno 17321 bound_to 7965
  140.4002  144.2503  150.5893 LP  0  0  0  0  0  0  0  0  0  0  0  0  # atno 17342 bound_to 10162
  140.5064  143.2303  151.8601 LP  0  0  0  0  0  0  0  0  0  0  0  0  # atno 17343 bound_to 10162
  156.3996  130.7668  151.2675 LP  0  0  0  0  0  0  0  0  0  0  0  0  # atno 17370 bound_to 10713
  157.7508  131.0243  150.3873 LP  0  0  0  0  0  0  0  0  0  0  0  0  # atno 17371 bound_to 10713
  140.5704  134.5846  157.5456 LP  0  0  0  0  0  0  0  0  0  0  0  0  # atno 17394 bound_to 11000
  139.9509  134.7619  156.0451 LP  0  0  0  0  0  0  0  0  0  0  0  0  # atno 17395 bound_to 11000

$$$$
