AV-unprocessed.smi:2136|AV-procd|sdf|8704|dock6
  -GOLD-   2272011463D 1   1.00000     0.00000
 Structure written by MMmdl.
 43 44  0  0  0  0  0  0  0  0  2 V2000
  149.7388  134.1850  154.7354 C   0  0  0  0  0  0  0  0  0  0  0  0
  149.9524  135.5216  155.9847 S   0  0  0  0  0  0  0  0  0  0  0  0
  148.8785  135.4261  156.9857 O   0  0  0  0  0  0  0  0  0  0  0  0
  151.3557  135.4696  156.4235 O   0  0  0  0  0  0  0  0  0  0  0  0
  149.7275  136.9956  155.0665 N   0  0  0  0  0  0  0  0  0  0  0  0
  150.9127  137.8843  154.9854 C   0  0  0  0  0  0  0  0  0  0  0  0
  150.7797  138.9834  153.9234 C   0  0  0  0  0  0  0  0  0  0  0  0
  149.4977  139.7819  154.1246 C   0  0  0  0  0  0  0  0  0  0  0  0
  148.3216  138.8154  154.0265 C   0  0  0  0  0  0  0  0  0  0  0  0
  148.3983  137.6851  155.0823 C   0  0  1  0  0  0  0  0  0  0  0  0
  147.1730  136.7736  154.8992 C   0  0  0  0  0  0  0  0  0  0  0  0
  146.3559  136.6391  155.8111 O   0  0  0  0  0  0  0  0  0  0  0  0
  147.0545  136.1517  153.7157 N   0  0  0  0  0  0  0  0  0  0  0  0
  145.9600  135.2651  153.3415 C   0  0  0  0  0  0  0  0  0  0  0  0
  146.4757  133.9047  152.8419 C   0  0  0  0  0  0  0  0  0  0  0  0
  145.6524  133.3662  151.6881 C   0  0  0  0  0  0  0  0  0  0  0  0
  146.0456  132.1870  151.0173 C   0  0  0  0  0  0  0  0  0  0  0  0
  145.2626  131.7059  149.9474 C   0  0  0  0  0  0  0  0  0  0  0  0
  144.1046  132.4165  149.5705 C   0  0  0  0  0  0  0  0  0  0  0  0
  143.7604  133.5418  150.2347 N   0  3  0  0  0  0  0  0  0  0  0  0
  144.4825  134.0341  151.2654 C   0  0  0  0  0  0  0  0  0  0  0  0
  150.0384  133.2345  155.1761 H   0  0  0  0  0  0  0  0  0  0  0  0
  150.3658  134.3922  153.8686 H   0  0  0  0  0  0  0  0  0  0  0  0
  148.6987  134.1111  154.4265 H   0  0  0  0  0  0  0  0  0  0  0  0
  151.0804  138.3301  155.9665 H   0  0  0  0  0  0  0  0  0  0  0  0
  151.7990  137.2954  154.7498 H   0  0  0  0  0  0  0  0  0  0  0  0
  151.6426  139.6482  153.9704 H   0  0  0  0  0  0  0  0  0  0  0  0
  150.7872  138.5373  152.9279 H   0  0  0  0  0  0  0  0  0  0  0  0
  149.5048  140.2800  155.0948 H   0  0  0  0  0  0  0  0  0  0  0  0
  149.4133  140.5599  153.3653 H   0  0  0  0  0  0  0  0  0  0  0  0
  147.3915  139.3733  154.1446 H   0  0  0  0  0  0  0  0  0  0  0  0
  148.2978  138.3947  153.0196 H   0  0  0  0  0  0  0  0  0  0  0  0
  148.3092  138.1563  156.0630 H   0  0  0  0  0  0  0  0  0  0  0  0
  147.7630  136.3252  153.0169 H   0  0  0  0  0  0  0  0  0  0  0  0
  145.2845  135.1352  154.1889 H   0  0  0  0  0  0  0  0  0  0  0  0
  145.3831  135.7551  152.5567 H   0  0  0  0  0  0  0  0  0  0  0  0
  147.5179  133.9929  152.5315 H   0  0  0  0  0  0  0  0  0  0  0  0
  146.4576  133.1709  153.6489 H   0  0  0  0  0  0  0  0  0  0  0  0
  146.9364  131.6557  151.3201 H   0  0  0  0  0  0  0  0  0  0  0  0
  145.5472  130.8050  149.4234 H   0  0  0  0  0  0  0  0  0  0  0  0
  143.4485  132.1213  148.7644 H   0  0  0  0  0  0  0  0  0  0  0  0
  144.1041  134.9404  151.7158 H   0  0  0  0  0  0  0  0  0  0  0  0
  142.9191  134.0415  149.9454 H   0  0  0  0  0  0  0  0  0  0  0  0
  1  2  1  0  0  0  0
  1 22  1  0  0  0  0
  1 23  1  0  0  0  0
  1 24  1  0  0  0  0
  2  3  2  0  0  0  0
  2  4  2  0  0  0  0
  2  5  1  0  0  0  0
  5 10  1  0  0  0  0
  5  6  1  0  0  0  0
  6  7  1  0  0  0  0
  6 25  1  0  0  0  0
  6 26  1  0  0  0  0
  7  8  1  0  0  0  0
  7 27  1  0  0  0  0
  7 28  1  0  0  0  0
  8  9  1  0  0  0  0
  8 29  1  0  0  0  0
  8 30  1  0  0  0  0
  9 10  1  0  0  0  0
  9 31  1  0  0  0  0
  9 32  1  0  0  0  0
 10 11  1  0  0  0  0
 10 33  1  0  0  0  0
 11 12  2  0  0  0  0
 11 13  1  0  0  0  0
 13 14  1  0  0  0  0
 13 34  1  0  0  0  0
 14 15  1  0  0  0  0
 14 35  1  0  0  0  0
 14 36  1  0  0  0  0
 15 16  1  0  0  0  0
 15 37  1  0  0  0  0
 15 38  1  0  0  0  0
 16 21  1  0  0  0  0
 16 17  2  0  0  0  0
 17 18  1  0  0  0  0
 17 39  1  0  0  0  0
 18 19  2  0  0  0  0
 18 40  1  0  0  0  0
 19 20  1  0  0  0  0
 19 41  1  0  0  0  0
 20 21  2  0  0  0  0
 20 43  1  0  0  0  0
 21 42  1  0  0  0  0
M  CHG  1  20   1
M  END
> <s_m_source_file>
AV-unprocessed.smi

> <i_m_source_file_index>
2136

> <i_lp_mmshare_version>
43012

> <i_f3d_flags>
0

> <s_epik_input>
W0NIM11TKD1PKSg9TylOMVtDSDJdW0NIMl1bQ0gyXVtDSDJdW0NASF0xQyg9TylbTkhdW0NIMl1bQ0gyXWMyW2NIXVtjSF1bY0hdbltjSF0y

> <s_epik_cmdline>
J2VwaWtfcHl0aG9uJywgJy1waCcsICc3LjAnLCAnLXRuJywgJzgnLCAnLW1hJywgJzIwMCcsICctbWV0YWxfYmluZGluZycsICctaW1hZScsICc8aW5maWxlLm1hZT4nLCAnLW9tYWUnLCAnPG91dGZpbGUubWFlPic=

> <r_epik_Ionization_Penalty>
2.2835

> <r_epik_Ionization_Penalty_Charging>
2.2835

> <r_epik_Ionization_Penalty_Neutral>
1.35461e-07

> <r_epik_State_Penalty>
2.43297

> <r_epik_Charging_Adjusted_Penalty>
4.71647

> <i_epik_Tot_Q>
1

> <i_epik_Tot_abs_Q>
1

> <r_epik_Metal_State_Penalty>
2.44557

> <b_epik_Metal_Only>
0

> <s_lp_Force_Field>
OPLS_2005

> <r_lp_Energy>
13.1957

> <b_lp_Chiralities_Consistent>
1

> <s_lp_Variant>
AV-unprocessed.smi:2136-3

> <Gold.Version>
5.8.1

> <Gold.Id.Protein>
6NUR|6NUR_protein|mol2

> <Gold.PLP.Fitness>
45.4341

> <Gold.PLP.PLP>
-34.0819

> <Gold.PLP.part.hbond>
-3.0000

> <Gold.PLP.part.metal>
0.0000

> <Gold.PLP.part.buried>
-4.7842

> <Gold.PLP.part.nonpolar>
-25.9799

> <Gold.PLP.part.repulsive>
0.0475

> <Gold.PLP.ligand.clash>
0.0000

> <Gold.PLP.ligand.torsion>
1.3865

> <Gold.PLP.Chemscore.Hbond>
4.0000

> <Gold.PLP.Chemscore.CHOScore>
0.0000

> <Gold.PLP.Chemscore.Metal>
0.0000

> <Gold.Chemscore.Hbonds>
donor molecule, donor type, donor heavy atom, donor atom, acceptor molecule, acceptor atom, score
      L1  H    13    34       P1  7948  1.00
      L1  H    20    43       P1 10186  2.00
      P1  H 10752 10763       L1     4  0.46

> <Gold.PLP.Chemscore.Internal.Correction>
2.1251

> <Gold.Rescore>
     Score         DG    S(hbond)    S(metal)    S(lipo)     H(rot)  DE(clash)    DE(int)     intcor
     18.35     -20.69       2.95        0.00      82.00       1.65       0.04       2.30       ----

> <Gold.Chemscore.Fitness>
18.3463

> <Gold.Chemscore.DG>
-20.6863

> <Gold.Chemscore.ZeroCoef>
-5.4800

> <Gold.Chemscore.Hbond>
2.9479

> <Gold.Chemscore.Metal>
0.0000

> <Gold.Chemscore.Lipo>
82.0006

> <Gold.Chemscore.Internal_Hbond>
0.0000

> <Gold.Chemscore.DEClash>
0.0396

> <Gold.Chemscore.DEInternal>
2.3004

> <Gold.Chemscore.Rot>
1.6538

> <Gold.Chemscore.Internal.Correction>
   9.000000E+99

> <Gold.Chemscore.Hbonds>
donor molecule, donor type, donor heavy atom, donor atom, acceptor molecule, acceptor atom, score
      L1  H    13    34       P1  7948  1.00
      L1  H    20    43       P1 10186  0.97
      P1  H 10752 10763       L1     4  0.45

> <Gold.Chemscore.Hbond.Weighted>
-9.8459

> <Gold.Chemscore.Metal.Weighted>
-0.0000

> <Gold.Chemscore.Lipo.Weighted>
-9.5941

> <Gold.Chemscore.Internal_Hbond.Weighted>
0.0000

> <Gold.Chemscore.DEClash.Weighted>
0.0396

> <Gold.Chemscore.DEInternal.Weighted>
2.3004

> <Gold.Chemscore.Rot.Weighted>
4.2337

> <Gold.Chemscore.Internal.Correction.Weighted>
   9.000000E+99

> <Gold.Protein.RotatedTorsions>
[ 6907 6896 6895 6894 ] final  -19.76 input  -60.11 | X-H torsion
[ 7974 7965 7964 7962 ] final  114.02 input  175.53 | X-H torsion
[ 8008 7997 7996 7995 ] final   42.24 input   59.86 | X-H torsion
[ 10167 10162 10161 10158 ] final   93.64 input  -65.29 | X-H torsion
[ 10718 10713 10712 10709 ] final  138.33 input   66.30 | X-H torsion
[ 10763 10752 10751 10750 ] final   93.52 input  -60.55 | X-H torsion
[ 11005 11000 10999 10996 ] final  -36.88 input  -57.11 | X-H torsion

> <Gold.Protein.ActiveResidues>
 VAL166  LYS551  ARG553  GLY616  TRP617  ASP618  TYR619  PRO620  LYS621  CYS622 
 ASP623  PHE694  ASN695  SER759  ASP760  ASP761  ALA762  ILE779  LEU786  VAL792 
 PHE793  MET794  SER795  GLU796  ALA797  LYS798  CYS799  TRP800  GLU811  SER814 

> <Gold.Protein.RotatedAtoms>
  151.2582  135.0645  159.9087 H   0  0  0  0  0  0  0  0  0  0  0  0  # atno 6907 bound_to 6896
  152.5370  134.0259  159.8013 H   0  0  0  0  0  0  0  0  0  0  0  0  # atno 6908 bound_to 6896
  151.0478  133.5601  159.2676 H   0  0  0  0  0  0  0  0  0  0  0  0  # atno 6909 bound_to 6896
  145.2096  139.2913  143.4275 H   0  0  0  0  0  0  0  0  0  0  0  0  # atno 7974 bound_to 7965
  155.2829  140.3373  155.4257 H   0  0  0  0  0  0  0  0  0  0  0  0  # atno 8008 bound_to 7997
  156.2081  140.1759  156.7795 H   0  0  0  0  0  0  0  0  0  0  0  0  # atno 8009 bound_to 7997
  154.5649  140.0680  156.8860 H   0  0  0  0  0  0  0  0  0  0  0  0  # atno 8010 bound_to 7997
  139.8160  144.6752  150.9579 H   0  0  0  0  0  0  0  0  0  0  0  0  # atno 10167 bound_to 10162
  157.4264  131.1044  151.0298 H   0  0  0  0  0  0  0  0  0  0  0  0  # atno 10718 bound_to 10713
  153.2312  135.4322  155.0597 H   0  0  0  0  0  0  0  0  0  0  0  0  # atno 10763 bound_to 10752
  154.8297  135.3380  154.6784 H   0  0  0  0  0  0  0  0  0  0  0  0  # atno 10764 bound_to 10752
  153.7212  135.7017  153.5069 H   0  0  0  0  0  0  0  0  0  0  0  0  # atno 10765 bound_to 10752
  140.9909  133.7005  156.1849 H   0  0  0  0  0  0  0  0  0  0  0  0  # atno 11005 bound_to 11000
  146.3400  140.2367  142.8594 LP  0  0  0  0  0  0  0  0  0  0  0  0  # atno 17320 bound_to 7965
  144.9869  140.8511  143.5363 LP  0  0  0  0  0  0  0  0  0  0  0  0  # atno 17321 bound_to 7965
  140.7816  143.4138  151.0950 LP  0  0  0  0  0  0  0  0  0  0  0  0  # atno 17342 bound_to 10162
  139.7801  143.8367  152.3136 LP  0  0  0  0  0  0  0  0  0  0  0  0  # atno 17343 bound_to 10162
  157.1210  130.6061  149.5505 LP  0  0  0  0  0  0  0  0  0  0  0  0  # atno 17370 bound_to 10713
  155.9898  130.4947  150.7229 LP  0  0  0  0  0  0  0  0  0  0  0  0  # atno 17371 bound_to 10713
  140.7041  134.4532  157.5585 LP  0  0  0  0  0  0  0  0  0  0  0  0  # atno 17394 bound_to 11000
  139.8992  134.8597  156.1970 LP  0  0  0  0  0  0  0  0  0  0  0  0  # atno 17395 bound_to 11000

$$$$
