AV-unprocessed.smi:2961|AV-procd|sdf|11314|dock2
  -GOLD-   2272016213D 1   1.00000     0.00000
 Structure written by MMmdl.
 49 51  0  0  0  0  0  0  0  0  2 V2000
  150.0945  133.2107  152.7153 C   0  0  0  0  0  0  0  0  0  0  0  0
  150.8906  134.0182  153.7346 C   0  0  0  0  0  0  0  0  0  0  0  0
  151.6376  133.4475  154.5283 O   0  0  0  0  0  0  0  0  0  0  0  0
  150.7290  135.3489  153.6948 N   0  0  0  0  0  0  0  0  0  0  0  0
  151.3884  136.3034  154.5820 C   0  0  0  0  0  0  0  0  0  0  0  0
  151.4653  137.7301  153.9998 C   0  0  0  0  0  0  0  0  0  0  0  0
  150.2135  138.5219  154.2156 C   0  0  0  0  0  0  0  0  0  0  0  0
  149.0433  138.3608  153.5352 N   0  3  0  0  0  0  0  0  0  0  0  0
  148.0934  139.2672  154.0064 C   0  0  0  0  0  0  0  0  0  0  0  0
  146.7726  139.4825  153.6250 C   0  0  0  0  0  0  0  0  0  0  0  0
  146.0749  140.5004  154.3076 C   0  0  0  0  0  0  0  0  0  0  0  0
  146.6910  141.2575  155.3251 C   0  0  0  0  0  0  0  0  0  0  0  0
  148.0295  141.0270  155.7055 C   0  0  0  0  0  0  0  0  0  0  0  0
  148.7130  140.0183  155.0262 C   0  0  0  0  0  0  0  0  0  0  0  0
  150.0187  139.5210  155.1237 N   0  0  0  0  0  0  0  0  0  0  0  0
  150.9465  140.1063  156.1041 C   0  0  0  0  0  0  0  0  0  0  0  0
  151.1342  139.2072  157.3345 C   0  0  0  0  0  0  0  0  0  0  0  0
  152.4603  139.3482  157.8261 O   0  0  0  0  0  0  0  0  0  0  0  0
  152.7167  140.3411  158.7459 C   0  0  0  0  0  0  0  0  0  0  0  0
  151.9101  141.4937  158.9213 C   0  0  0  0  0  0  0  0  0  0  0  0
  152.2484  142.4575  159.8909 C   0  0  0  0  0  0  0  0  0  0  0  0
  153.3917  142.2842  160.6924 C   0  0  0  0  0  0  0  0  0  0  0  0
  154.2027  141.1448  160.5248 C   0  0  0  0  0  0  0  0  0  0  0  0
  155.4320  140.9579  161.3897 C   0  0  0  0  0  0  0  0  0  0  0  0
  153.8611  140.1809  159.5539 C   0  0  0  0  0  0  0  0  0  0  0  0
  149.0498  133.5242  152.7067 H   0  0  0  0  0  0  0  0  0  0  0  0
  150.1285  132.1467  152.9523 H   0  0  0  0  0  0  0  0  0  0  0  0
  150.5066  133.3523  151.7158 H   0  0  0  0  0  0  0  0  0  0  0  0
  150.0904  135.7282  153.0102 H   0  0  0  0  0  0  0  0  0  0  0  0
  150.8234  136.3199  155.5139 H   0  0  0  0  0  0  0  0  0  0  0  0
  152.3871  135.9462  154.8378 H   0  0  0  0  0  0  0  0  0  0  0  0
  152.3055  138.2651  154.4429 H   0  0  0  0  0  0  0  0  0  0  0  0
  151.6678  137.6846  152.9293 H   0  0  0  0  0  0  0  0  0  0  0  0
  146.2996  138.9054  152.8439 H   0  0  0  0  0  0  0  0  0  0  0  0
  145.0477  140.7067  154.0440 H   0  0  0  0  0  0  0  0  0  0  0  0
  146.1262  142.0319  155.8237 H   0  0  0  0  0  0  0  0  0  0  0  0
  148.4925  141.6170  156.4826 H   0  0  0  0  0  0  0  0  0  0  0  0
  151.9006  140.3115  155.6188 H   0  0  0  0  0  0  0  0  0  0  0  0
  150.5454  141.0725  156.4089 H   0  0  0  0  0  0  0  0  0  0  0  0
  150.4155  139.4882  158.1053 H   0  0  0  0  0  0  0  0  0  0  0  0
  150.9427  138.1696  157.0561 H   0  0  0  0  0  0  0  0  0  0  0  0
  151.0270  141.6626  158.3242 H   0  0  0  0  0  0  0  0  0  0  0  0
  151.6282  143.3324  160.0195 H   0  0  0  0  0  0  0  0  0  0  0  0
  153.6445  143.0274  161.4347 H   0  0  0  0  0  0  0  0  0  0  0  0
  156.0959  140.1985  160.9749 H   0  0  0  0  0  0  0  0  0  0  0  0
  155.1417  140.6479  162.3937 H   0  0  0  0  0  0  0  0  0  0  0  0
  155.9914  141.8907  161.4663 H   0  0  0  0  0  0  0  0  0  0  0  0
  154.4802  139.3051  159.4251 H   0  0  0  0  0  0  0  0  0  0  0  0
  148.9091  137.6793  152.7993 H   0  0  0  0  0  0  0  0  0  0  0  0
  1  2  1  0  0  0  0
  1 26  1  0  0  0  0
  1 27  1  0  0  0  0
  1 28  1  0  0  0  0
  2  3  2  0  0  0  0
  2  4  1  0  0  0  0
  4  5  1  0  0  0  0
  4 29  1  0  0  0  0
  5  6  1  0  0  0  0
  5 30  1  0  0  0  0
  5 31  1  0  0  0  0
  6  7  1  0  0  0  0
  6 32  1  0  0  0  0
  6 33  1  0  0  0  0
  7 15  1  0  0  0  0
  7  8  2  0  0  0  0
  8  9  1  0  0  0  0
  8 49  1  0  0  0  0
  9 14  2  0  0  0  0
  9 10  1  0  0  0  0
 10 11  2  0  0  0  0
 10 34  1  0  0  0  0
 11 12  1  0  0  0  0
 11 35  1  0  0  0  0
 12 13  2  0  0  0  0
 12 36  1  0  0  0  0
 13 14  1  0  0  0  0
 13 37  1  0  0  0  0
 14 15  1  0  0  0  0
 15 16  1  0  0  0  0
 16 17  1  0  0  0  0
 16 38  1  0  0  0  0
 16 39  1  0  0  0  0
 17 18  1  0  0  0  0
 17 40  1  0  0  0  0
 17 41  1  0  0  0  0
 18 19  1  0  0  0  0
 19 25  1  0  0  0  0
 19 20  2  0  0  0  0
 20 21  1  0  0  0  0
 20 42  1  0  0  0  0
 21 22  2  0  0  0  0
 21 43  1  0  0  0  0
 22 23  1  0  0  0  0
 22 44  1  0  0  0  0
 23 24  1  0  0  0  0
 23 25  2  0  0  0  0
 24 45  1  0  0  0  0
 24 46  1  0  0  0  0
 24 47  1  0  0  0  0
 25 48  1  0  0  0  0
M  CHG  1   8   1
M  END
> <s_m_source_file>
AV-unprocessed.smi

> <i_m_source_file_index>
2961

> <i_lp_mmshare_version>
43012

> <i_f3d_flags>
0

> <s_epik_input>
W0NIM11DKD1PKVtOSF1bQ0gyXVtDSDJdYyhuMSluKGMoYzEyKVtjSF1bY0hdW2NIXVtjSF0yKVtDSDJdW0NIMl1PYzNbY0hdW2NIXVtjSF1jKFtDSDNdKVtjSF0z

> <s_epik_cmdline>
J2VwaWtfcHl0aG9uJywgJy1waCcsICc3LjAnLCAnLXRuJywgJzgnLCAnLW1hJywgJzIwMCcsICctbWV0YWxfYmluZGluZycsICctaW1hZScsICc8aW5maWxlLm1hZT4nLCAnLW9tYWUnLCAnPG91dGZpbGUubWFlPic=

> <r_lp_tautomer_probability>
1

> <r_epik_Ionization_Penalty>
1.11168

> <r_epik_Ionization_Penalty_Charging>
1.11168

> <r_epik_Ionization_Penalty_Neutral>
3.05925e-07

> <r_epik_State_Penalty>
1.16973

> <r_epik_Charging_Adjusted_Penalty>
2.28141

> <i_epik_Tot_Q>
1

> <i_epik_Tot_abs_Q>
1

> <r_epik_Metal_State_Penalty>
1.2554

> <b_epik_Metal_Only>
0

> <s_lp_Force_Field>
OPLS_2005

> <r_lp_Energy>
19.5135

> <b_lp_Chiralities_Consistent>
1

> <s_lp_Variant>
AV-unprocessed.smi:2961-2

> <Gold.Version>
5.8.1

> <Gold.Id.Protein>
6NUR|6NUR_protein|mol2

> <Gold.PLP.Fitness>
58.8531

> <Gold.PLP.PLP>
-52.4945

> <Gold.PLP.part.hbond>
-3.5989

> <Gold.PLP.part.metal>
0.0000

> <Gold.PLP.part.buried>
1.2188

> <Gold.PLP.part.nonpolar>
-50.1818

> <Gold.PLP.part.repulsive>
0.1328

> <Gold.PLP.ligand.clash>
0.0000

> <Gold.PLP.ligand.torsion>
1.3923

> <Gold.PLP.Chemscore.Hbond>
3.0000

> <Gold.PLP.Chemscore.CHOScore>
0.0000

> <Gold.PLP.Chemscore.Metal>
0.0000

> <Gold.Chemscore.Hbonds>
donor molecule, donor type, donor heavy atom, donor atom, acceptor molecule, acceptor atom, score
      L1  H     8    49       P1  7948  2.00

> <Gold.PLP.Chemscore.Internal.Correction>
0.1432

> <Gold.Rescore>
     Score         DG    S(hbond)    S(metal)    S(lipo)     H(rot)  DE(clash)    DE(int)     intcor
     19.06     -20.39       1.80        0.00     123.68       2.18       0.30       1.03       ----

> <Gold.Chemscore.Fitness>
19.0567

> <Gold.Chemscore.DG>
-20.3899

> <Gold.Chemscore.ZeroCoef>
-5.4800

> <Gold.Chemscore.Hbond>
1.8019

> <Gold.Chemscore.Metal>
0.0000

> <Gold.Chemscore.Lipo>
123.6817

> <Gold.Chemscore.Internal_Hbond>
0.0000

> <Gold.Chemscore.DEClash>
0.3022

> <Gold.Chemscore.DEInternal>
1.0311

> <Gold.Chemscore.Rot>
2.1793

> <Gold.Chemscore.Internal.Correction>
   9.000000E+99

> <Gold.Chemscore.Hbonds>
donor molecule, donor type, donor heavy atom, donor atom, acceptor molecule, acceptor atom, score
      L1  H     8    49       P1  7948  1.00

> <Gold.Chemscore.Hbond.Weighted>
-6.0183

> <Gold.Chemscore.Metal.Weighted>
-0.0000

> <Gold.Chemscore.Lipo.Weighted>
-14.4708

> <Gold.Chemscore.Internal_Hbond.Weighted>
0.0000

> <Gold.Chemscore.DEClash.Weighted>
0.3022

> <Gold.Chemscore.DEInternal.Weighted>
1.0311

> <Gold.Chemscore.Rot.Weighted>
5.5791

> <Gold.Chemscore.Internal.Correction.Weighted>
   9.000000E+99

> <Gold.Protein.RotatedTorsions>
[ 6907 6896 6895 6894 ] final  131.55 input  -60.11 | X-H torsion
[ 7974 7965 7964 7962 ] final  -86.04 input  175.53 | X-H torsion
[ 8008 7997 7996 7995 ] final   76.68 input   59.86 | X-H torsion
[ 10167 10162 10161 10158 ] final  -18.16 input  -65.29 | X-H torsion
[ 10718 10713 10712 10709 ] final  121.52 input   66.30 | X-H torsion
[ 10763 10752 10751 10750 ] final -116.01 input  -60.55 | X-H torsion
[ 11005 11000 10999 10996 ] final  -73.45 input  -57.11 | X-H torsion

> <Gold.Protein.ActiveResidues>
 VAL166  LYS551  ARG553  GLY616  TRP617  ASP618  TYR619  PRO620  LYS621  CYS622 
 ASP623  PHE694  ASN695  SER759  ASP760  ASP761  ALA762  ILE779  LEU786  VAL792 
 PHE793  MET794  SER795  GLU796  ALA797  LYS798  CYS799  TRP800  GLU811  SER814 

> <Gold.Protein.RotatedAtoms>
  152.3415  133.6072  159.5879 H   0  0  0  0  0  0  0  0  0  0  0  0  # atno 6907 bound_to 6896
  150.7481  133.9715  159.3556 H   0  0  0  0  0  0  0  0  0  0  0  0  # atno 6908 bound_to 6896
  151.7579  135.0818  160.0392 H   0  0  0  0  0  0  0  0  0  0  0  0  # atno 6909 bound_to 6896
  145.4852  140.9555  143.1842 H   0  0  0  0  0  0  0  0  0  0  0  0  # atno 7974 bound_to 7965
  155.8308  140.3466  155.5571 H   0  0  0  0  0  0  0  0  0  0  0  0  # atno 8008 bound_to 7997
  155.8244  140.0917  157.1850 H   0  0  0  0  0  0  0  0  0  0  0  0  # atno 8009 bound_to 7997
  154.4004  140.1424  156.3526 H   0  0  0  0  0  0  0  0  0  0  0  0  # atno 8010 bound_to 7997
  140.7255  143.4943  150.9951 H   0  0  0  0  0  0  0  0  0  0  0  0  # atno 10167 bound_to 10162
  157.5811  131.1074  150.8185 H   0  0  0  0  0  0  0  0  0  0  0  0  # atno 10718 bound_to 10713
  154.8503  135.4361  154.1754 H   0  0  0  0  0  0  0  0  0  0  0  0  # atno 10763 bound_to 10752
  153.2857  135.6957  153.7348 H   0  0  0  0  0  0  0  0  0  0  0  0  # atno 10764 bound_to 10752
  153.6534  135.3447  155.3081 H   0  0  0  0  0  0  0  0  0  0  0  0  # atno 10765 bound_to 10752
  141.1623  133.6878  156.7213 H   0  0  0  0  0  0  0  0  0  0  0  0  # atno 11005 bound_to 11000
  144.7865  139.6415  143.7132 LP  0  0  0  0  0  0  0  0  0  0  0  0  # atno 17320 bound_to 7965
  146.2317  139.5826  142.9551 LP  0  0  0  0  0  0  0  0  0  0  0  0  # atno 17321 bound_to 7965
  139.8649  143.7266  152.3171 LP  0  0  0  0  0  0  0  0  0  0  0  0  # atno 17342 bound_to 10162
  139.7495  144.7538  151.0529 LP  0  0  0  0  0  0  0  0  0  0  0  0  # atno 17343 bound_to 10162
  156.8631  130.5120  149.5302 LP  0  0  0  0  0  0  0  0  0  0  0  0  # atno 17370 bound_to 10713
  156.0857  130.5856  150.9644 LP  0  0  0  0  0  0  0  0  0  0  0  0  # atno 17371 bound_to 10713
  140.2814  134.8314  157.3936 LP  0  0  0  0  0  0  0  0  0  0  0  0  # atno 17394 bound_to 11000
  140.1430  134.4947  155.8017 LP  0  0  0  0  0  0  0  0  0  0  0  0  # atno 17395 bound_to 11000

$$$$
