AV-unprocessed.smi:550|AV-procd|sdf|2897|dock1
  -GOLD-   2262023393D 1   1.00000     0.00000
 Structure written by MMmdl.
 46 48  0  0  0  0  0  0  0  0  2 V2000
  147.2637  140.8301  152.9133 O   0  0  0  0  0  0  0  0  0  0  0  0
  147.9357  139.7990  152.8975 C   0  0  0  0  0  0  0  0  0  0  0  0
  147.7209  138.7909  152.0407 N   0  0  0  0  0  0  0  0  0  0  0  0
  146.6699  138.7642  151.0284 C   0  0  0  0  0  0  0  0  0  0  0  0
  145.6102  137.6852  151.3248 C   0  0  1  0  0  0  0  0  0  0  0  0
  145.9546  136.3309  150.6750 C   0  0  0  0  0  0  0  0  0  0  0  0
  145.0222  135.2630  151.2529 C   0  0  0  0  0  0  0  0  0  0  0  0
  144.7779  135.7293  153.0057 S   0  0  0  0  0  0  0  0  0  0  0  0
  143.3386  135.7407  153.3071 O   0  0  0  0  0  0  0  0  0  0  0  0
  145.7224  134.9775  153.8458 O   0  0  0  0  0  0  0  0  0  0  0  0
  145.3855  137.4507  152.8302 C   0  0  0  0  0  0  0  0  0  0  0  0
  148.9504  139.5218  153.7347 N   0  0  0  0  0  0  0  0  0  0  0  0
  149.4953  140.3426  154.7589 C   0  0  0  0  0  0  0  0  0  0  0  0
  150.5073  139.7947  155.5765 C   0  0  0  0  0  0  0  0  0  0  0  0
  151.0859  140.5792  156.5952 C   0  0  0  0  0  0  0  0  0  0  0  0
  150.6494  141.9122  156.7768 C   0  0  0  0  0  0  0  0  0  0  0  0
  151.1605  142.7752  157.7566 N   0  0  0  0  0  0  0  0  0  0  0  0
  152.1754  142.1926  158.6186 C   0  0  0  0  0  0  0  0  0  0  0  0
  152.8619  143.3785  159.3013 C   0  0  0  0  0  0  0  0  0  0  0  0
  152.5762  144.5774  158.3890 C   0  0  0  0  0  0  0  0  0  0  0  0
  151.7330  144.0089  157.2442 C   0  0  0  0  0  0  0  0  0  0  0  0
  149.6896  142.4049  155.9641 N   0  3  0  0  0  0  0  0  0  0  0  0
  149.1082  141.6873  154.9785 C   0  0  0  0  0  0  0  0  0  0  0  0
  148.3175  137.9785  152.0972 H   0  0  0  0  0  0  0  0  0  0  0  0
  146.2007  139.7465  150.9510 H   0  0  0  0  0  0  0  0  0  0  0  0
  147.1377  138.5730  150.0621 H   0  0  0  0  0  0  0  0  0  0  0  0
  144.6576  138.0049  150.8992 H   0  0  0  0  0  0  0  0  0  0  0  0
  145.8829  136.3747  149.5877 H   0  0  0  0  0  0  0  0  0  0  0  0
  146.9850  136.0660  150.9165 H   0  0  0  0  0  0  0  0  0  0  0  0
  144.0515  135.2887  150.7571 H   0  0  0  0  0  0  0  0  0  0  0  0
  145.4266  134.2533  151.1814 H   0  0  0  0  0  0  0  0  0  0  0  0
  146.3196  137.5296  153.3871 H   0  0  0  0  0  0  0  0  0  0  0  0
  144.6658  138.1465  153.2620 H   0  0  0  0  0  0  0  0  0  0  0  0
  149.3482  138.5970  153.6605 H   0  0  0  0  0  0  0  0  0  0  0  0
  150.8374  138.7764  155.4304 H   0  0  0  0  0  0  0  0  0  0  0  0
  151.8563  140.1580  157.2246 H   0  0  0  0  0  0  0  0  0  0  0  0
  151.7298  141.5147  159.3473 H   0  0  0  0  0  0  0  0  0  0  0  0
  152.9006  141.6271  158.0319 H   0  0  0  0  0  0  0  0  0  0  0  0
  152.4280  143.5520  160.2868 H   0  0  0  0  0  0  0  0  0  0  0  0
  153.9298  143.2027  159.4347 H   0  0  0  0  0  0  0  0  0  0  0  0
  152.0130  145.3345  158.9361 H   0  0  0  0  0  0  0  0  0  0  0  0
  153.4893  145.0450  158.0197 H   0  0  0  0  0  0  0  0  0  0  0  0
  152.3648  143.8085  156.3781 H   0  0  0  0  0  0  0  0  0  0  0  0
  150.9528  144.7060  156.9370 H   0  0  0  0  0  0  0  0  0  0  0  0
  148.3697  142.2244  154.4026 H   0  0  0  0  0  0  0  0  0  0  0  0
  149.3890  143.3706  156.0993 H   0  0  0  0  0  0  0  0  0  0  0  0
  1  2  2  0  0  0  0
  2  3  1  0  0  0  0
  2 12  1  0  0  0  0
  3  4  1  0  0  0  0
  3 24  1  0  0  0  0
  4  5  1  0  0  0  0
  4 25  1  0  0  0  0
  4 26  1  0  0  0  0
  5 11  1  0  0  0  0
  5  6  1  0  0  0  0
  5 27  1  0  0  0  0
  6  7  1  0  0  0  0
  6 28  1  0  0  0  0
  6 29  1  0  0  0  0
  7  8  1  0  0  0  0
  7 30  1  0  0  0  0
  7 31  1  0  0  0  0
  8  9  2  0  0  0  0
  8 10  2  0  0  0  0
  8 11  1  0  0  0  0
 11 32  1  0  0  0  0
 11 33  1  0  0  0  0
 12 13  1  0  0  0  0
 12 34  1  0  0  0  0
 13 23  1  0  0  0  0
 13 14  2  0  0  0  0
 14 15  1  0  0  0  0
 14 35  1  0  0  0  0
 15 16  2  0  0  0  0
 15 36  1  0  0  0  0
 16 17  1  0  0  0  0
 16 22  1  0  0  0  0
 17 21  1  0  0  0  0
 17 18  1  0  0  0  0
 18 19  1  0  0  0  0
 18 37  1  0  0  0  0
 18 38  1  0  0  0  0
 19 20  1  0  0  0  0
 19 39  1  0  0  0  0
 19 40  1  0  0  0  0
 20 21  1  0  0  0  0
 20 41  1  0  0  0  0
 20 42  1  0  0  0  0
 21 43  1  0  0  0  0
 21 44  1  0  0  0  0
 22 23  2  0  0  0  0
 22 46  1  0  0  0  0
 23 45  1  0  0  0  0
M  CHG  1  22   1
M  END
> <s_m_source_file>
AV-unprocessed.smi

> <i_m_source_file_index>
550

> <i_lp_mmshare_version>
43012

> <i_f3d_flags>
0

> <s_epik_input>
Tz1TMSg9TylbQ0gyXVtDSDJdW0NASF0oW0NIMl0xKVtDSDJdW05IXUMoPU8pW05IXWMyW2NIXVtjSF1jKG5bY0hdMilOM1tDSDJdW0NIMl1bQ0gyXVtDSDJdMw==

> <s_epik_cmdline>
J2VwaWtfcHl0aG9uJywgJy1waCcsICc3LjAnLCAnLXRuJywgJzgnLCAnLW1hJywgJzIwMCcsICctbWV0YWxfYmluZGluZycsICctaW1hZScsICc8aW5maWxlLm1hZT4nLCAnLW9tYWUnLCAnPG91dGZpbGUubWFlPic=

> <r_lp_tautomer_probability>
0.999994

> <r_epik_Ionization_Penalty>
1.12573

> <r_epik_Ionization_Penalty_Charging>
1.12571

> <r_epik_Ionization_Penalty_Neutral>
1.93198e-05

> <r_epik_State_Penalty>
1.18495

> <r_epik_Charging_Adjusted_Penalty>
2.31065

> <i_epik_Tot_Q>
1

> <i_epik_Tot_abs_Q>
1

> <r_epik_Metal_State_Penalty>
1.26884

> <b_epik_Metal_Only>
0

> <s_lp_Force_Field>
OPLS_2005

> <r_lp_Energy>
40.0908

> <b_lp_Chiralities_Consistent>
1

> <s_lp_Variant>
AV-unprocessed.smi:550-4

> <Gold.Version>
5.8.1

> <Gold.Id.Protein>
6NUR|6NUR_protein|mol2

> <Gold.PLP.Fitness>
48.5493

> <Gold.PLP.PLP>
-40.2765

> <Gold.PLP.part.hbond>
-3.8169

> <Gold.PLP.part.metal>
0.0000

> <Gold.PLP.part.buried>
4.9816

> <Gold.PLP.part.nonpolar>
-42.9055

> <Gold.PLP.part.repulsive>
0.7098

> <Gold.PLP.ligand.clash>
0.0000

> <Gold.PLP.ligand.torsion>
0.3894

> <Gold.PLP.Chemscore.Hbond>
3.0000

> <Gold.PLP.Chemscore.CHOScore>
0.0000

> <Gold.PLP.Chemscore.Metal>
0.0000

> <Gold.Chemscore.Hbonds>
donor molecule, donor type, donor heavy atom, donor atom, acceptor molecule, acceptor atom, score
      L1  H     3    24       P1  7948  1.00
      L1  H    22    46       P1  8028  1.89

> <Gold.PLP.Chemscore.Internal.Correction>
0.0516

> <Gold.Rescore>
     Score         DG    S(hbond)    S(metal)    S(lipo)     H(rot)  DE(clash)    DE(int)     intcor
     17.67     -19.68       1.94        0.00      98.82       1.50       0.37       1.64       ----

> <Gold.Chemscore.Fitness>
17.6670

> <Gold.Chemscore.DG>
-19.6773

> <Gold.Chemscore.ZeroCoef>
-5.4800

> <Gold.Chemscore.Hbond>
1.9359

> <Gold.Chemscore.Metal>
0.0000

> <Gold.Chemscore.Lipo>
98.8184

> <Gold.Chemscore.Internal_Hbond>
0.0000

> <Gold.Chemscore.DEClash>
0.3710

> <Gold.Chemscore.DEInternal>
1.6392

> <Gold.Chemscore.Rot>
1.4962

> <Gold.Chemscore.Internal.Correction>
   9.000000E+99

> <Gold.Chemscore.Hbonds>
donor molecule, donor type, donor heavy atom, donor atom, acceptor molecule, acceptor atom, score
      L1  H     3    24       P1  7948  1.00
      L1  H    22    46       P1  8028  0.88

> <Gold.Chemscore.Hbond.Weighted>
-6.4658

> <Gold.Chemscore.Metal.Weighted>
-0.0000

> <Gold.Chemscore.Lipo.Weighted>
-11.5618

> <Gold.Chemscore.Internal_Hbond.Weighted>
0.0000

> <Gold.Chemscore.DEClash.Weighted>
0.3710

> <Gold.Chemscore.DEInternal.Weighted>
1.6392

> <Gold.Chemscore.Rot.Weighted>
3.8303

> <Gold.Chemscore.Internal.Correction.Weighted>
   9.000000E+99

> <Gold.Protein.RotatedTorsions>
[ 6907 6896 6895 6894 ] final   -9.27 input  -60.11 | X-H torsion
[ 7974 7965 7964 7962 ] final  171.80 input  175.53 | X-H torsion
[ 8008 7997 7996 7995 ] final  -26.12 input   59.86 | X-H torsion
[ 10167 10162 10161 10158 ] final   12.88 input  -65.29 | X-H torsion
[ 10718 10713 10712 10709 ] final  178.37 input   66.30 | X-H torsion
[ 10763 10752 10751 10750 ] final -143.61 input  -60.55 | X-H torsion
[ 11005 11000 10999 10996 ] final    8.02 input  -57.11 | X-H torsion

> <Gold.Protein.ActiveResidues>
 VAL166  LYS551  ARG553  GLY616  TRP617  ASP618  TYR619  PRO620  LYS621  CYS622 
 ASP623  PHE694  ASN695  SER759  ASP760  ASP761  ALA762  ILE779  LEU786  VAL792 
 PHE793  MET794  SER795  GLU796  ALA797  LYS798  CYS799  TRP800  GLU811  SER814 

> <Gold.Protein.RotatedAtoms>
  151.4204  135.0997  159.9611 H   0  0  0  0  0  0  0  0  0  0  0  0  # atno 6907 bound_to 6896
  152.4990  133.8713  159.7310 H   0  0  0  0  0  0  0  0  0  0  0  0  # atno 6908 bound_to 6896
  150.9227  133.6803  159.2856 H   0  0  0  0  0  0  0  0  0  0  0  0  # atno 6909 bound_to 6896
  144.7285  139.9403  143.6428 H   0  0  0  0  0  0  0  0  0  0  0  0  # atno 7974 bound_to 7965
  154.4441  140.1908  156.0726 H   0  0  0  0  0  0  0  0  0  0  0  0  # atno 8008 bound_to 7997
  156.0499  140.3310  155.7313 H   0  0  0  0  0  0  0  0  0  0  0  0  # atno 8009 bound_to 7997
  155.5572  140.0600  157.2827 H   0  0  0  0  0  0  0  0  0  0  0  0  # atno 8010 bound_to 7997
  140.6039  143.8548  150.6993 H   0  0  0  0  0  0  0  0  0  0  0  0  # atno 10167 bound_to 10162
  156.8915  130.9849  151.3048 H   0  0  0  0  0  0  0  0  0  0  0  0  # atno 10718 bound_to 10713
  154.8462  135.3463  154.6215 H   0  0  0  0  0  0  0  0  0  0  0  0  # atno 10763 bound_to 10752
  153.6824  135.6979  153.5118 H   0  0  0  0  0  0  0  0  0  0  0  0  # atno 10764 bound_to 10752
  153.2658  135.4308  155.0895 H   0  0  0  0  0  0  0  0  0  0  0  0  # atno 10765 bound_to 10752
  140.5417  134.0368  155.7906 H   0  0  0  0  0  0  0  0  0  0  0  0  # atno 11005 bound_to 11000
  146.0789  139.3777  143.0476 LP  0  0  0  0  0  0  0  0  0  0  0  0  # atno 17320 bound_to 7965
  145.7867  140.9832  143.1070 LP  0  0  0  0  0  0  0  0  0  0  0  0  # atno 17321 bound_to 7965
  140.2100  143.3891  152.1725 LP  0  0  0  0  0  0  0  0  0  0  0  0  # atno 17342 bound_to 10162
  139.5311  144.7159  151.5054 LP  0  0  0  0  0  0  0  0  0  0  0  0  # atno 17343 bound_to 10162
  157.6081  130.8562  149.8907 LP  0  0  0  0  0  0  0  0  0  0  0  0  # atno 17370 bound_to 10713
  156.0626  130.3697  150.0948 LP  0  0  0  0  0  0  0  0  0  0  0  0  # atno 17371 bound_to 10713
  141.1223  133.9440  157.2704 LP  0  0  0  0  0  0  0  0  0  0  0  0  # atno 17394 bound_to 11000
  139.9501  135.0177  156.8967 LP  0  0  0  0  0  0  0  0  0  0  0  0  # atno 17395 bound_to 11000

$$$$
