AV-unprocessed.smi:1770|AV-procd|sdf|7155|dock1
  -GOLD-   22720 8393D 1   1.00000     0.00000
 Structure written by MMmdl.
 37 38  0  0  0  0  0  0  0  0  1 V2000
  148.0537  141.1070  153.8088 C   0  0  0  0  0  0  0  0  0  0  0  0
  149.4283  141.3795  154.0147 O   0  0  0  0  0  0  0  0  0  0  0  0
  149.7113  141.7758  155.3505 C   0  0  0  0  0  0  0  0  0  0  0  0
  150.8222  140.9005  155.9398 C   0  0  0  0  0  0  0  0  0  0  0  0
  151.3490  140.0488  155.2258 O   0  0  0  0  0  0  0  0  0  0  0  0
  151.1671  141.1533  157.2161 N   0  0  0  0  0  0  0  0  0  0  0  0
  152.1558  140.5401  158.0398 C   0  0  0  0  0  0  0  0  0  0  0  0
  152.6158  139.2136  157.8499 C   0  0  0  0  0  0  0  0  0  0  0  0
  153.6014  138.6988  158.7113 C   0  0  0  0  0  0  0  0  0  0  0  0
  154.0912  139.5253  159.7374 C   0  0  0  0  0  0  0  0  0  0  0  0
  153.6540  140.7840  159.9423 N   0  0  0  0  0  0  0  0  0  0  0  0
  152.7014  141.2868  159.1196 C   0  0  0  0  0  0  0  0  0  0  0  0
  152.2494  142.5957  159.3807 N   0  0  0  0  0  0  0  0  0  0  0  0
  152.5058  143.0460  160.7475 C   0  0  0  0  0  0  0  0  0  0  0  0
  151.6708  144.2959  161.0731 C   0  0  0  0  0  0  0  0  0  0  0  0
  151.9083  145.4026  160.0326 C   0  0  0  0  0  0  0  0  0  0  0  0
  151.6567  144.8647  158.6141 C   0  0  0  0  0  0  0  0  0  0  0  0
  152.4928  143.6010  158.3470 C   0  0  0  0  0  0  0  0  0  0  0  0
  147.8908  140.8097  152.7728 H   0  0  0  0  0  0  0  0  0  0  0  0
  147.4431  141.9887  154.0069 H   0  0  0  0  0  0  0  0  0  0  0  0
  147.7130  140.2934  154.4503 H   0  0  0  0  0  0  0  0  0  0  0  0
  150.0257  142.8203  155.3749 H   0  0  0  0  0  0  0  0  0  0  0  0
  148.8198  141.6793  155.9719 H   0  0  0  0  0  0  0  0  0  0  0  0
  150.6845  141.9312  157.6430 H   0  0  0  0  0  0  0  0  0  0  0  0
  152.2304  138.5747  157.0718 H   0  0  0  0  0  0  0  0  0  0  0  0
  153.9718  137.6920  158.5882 H   0  0  0  0  0  0  0  0  0  0  0  0
  154.8489  139.1640  160.4170 H   0  0  0  0  0  0  0  0  0  0  0  0
  152.2817  142.2572  161.4661 H   0  0  0  0  0  0  0  0  0  0  0  0
  153.5681  143.2706  160.8499 H   0  0  0  0  0  0  0  0  0  0  0  0
  150.6125  144.0312  161.0917 H   0  0  0  0  0  0  0  0  0  0  0  0
  151.9169  144.6602  162.0708 H   0  0  0  0  0  0  0  0  0  0  0  0
  151.2588  146.2550  160.2339 H   0  0  0  0  0  0  0  0  0  0  0  0
  152.9338  145.7654  160.1107 H   0  0  0  0  0  0  0  0  0  0  0  0
  150.5977  144.6316  158.4954 H   0  0  0  0  0  0  0  0  0  0  0  0
  151.8902  145.6308  157.8745 H   0  0  0  0  0  0  0  0  0  0  0  0
  153.5534  143.8558  158.3304 H   0  0  0  0  0  0  0  0  0  0  0  0
  152.2431  143.1923  157.3669 H   0  0  0  0  0  0  0  0  0  0  0  0
  1  2  1  0  0  0  0
  1 19  1  0  0  0  0
  1 20  1  0  0  0  0
  1 21  1  0  0  0  0
  2  3  1  0  0  0  0
  3  4  1  0  0  0  0
  3 22  1  0  0  0  0
  3 23  1  0  0  0  0
  4  5  2  0  0  0  0
  4  6  1  0  0  0  0
  6  7  1  0  0  0  0
  6 24  1  0  0  0  0
  7 12  1  0  0  0  0
  7  8  2  0  0  0  0
  8  9  1  0  0  0  0
  8 25  1  0  0  0  0
  9 10  2  0  0  0  0
  9 26  1  0  0  0  0
 10 11  1  0  0  0  0
 10 27  1  0  0  0  0
 11 12  2  0  0  0  0
 12 13  1  0  0  0  0
 13 18  1  0  0  0  0
 13 14  1  0  0  0  0
 14 15  1  0  0  0  0
 14 28  1  0  0  0  0
 14 29  1  0  0  0  0
 15 16  1  0  0  0  0
 15 30  1  0  0  0  0
 15 31  1  0  0  0  0
 16 17  1  0  0  0  0
 16 32  1  0  0  0  0
 16 33  1  0  0  0  0
 17 18  1  0  0  0  0
 17 34  1  0  0  0  0
 17 35  1  0  0  0  0
 18 36  1  0  0  0  0
 18 37  1  0  0  0  0
M  END
> <s_m_source_file>
AV-unprocessed.smi

> <i_m_source_file_index>
1770

> <i_lp_mmshare_version>
43012

> <i_f3d_flags>
0

> <s_epik_input>
W0NIM11PW0NIMl1DKD1PKVtOSF1jMVtjSF1bY0hdW2NIXW5jMU4yW0NIMl1bQ0gyXVtDSDJdW0NIMl1bQ0gyXTI=

> <s_epik_cmdline>
J2VwaWtfcHl0aG9uJywgJy1waCcsICc3LjAnLCAnLXRuJywgJzgnLCAnLW1hJywgJzIwMCcsICctbWV0YWxfYmluZGluZycsICctaW1hZScsICc8aW5maWxlLm1hZT4nLCAnLW9tYWUnLCAnPG91dGZpbGUubWFlPic=

> <r_lp_tautomer_probability>
1

> <r_epik_Ionization_Penalty>
0.0272113

> <r_epik_Ionization_Penalty_Charging>
0

> <r_epik_Ionization_Penalty_Neutral>
0.0272113

> <r_epik_State_Penalty>
0.0213264

> <r_epik_Charging_Adjusted_Penalty>
0.0213264

> <i_epik_Tot_Q>
0

> <i_epik_Tot_abs_Q>
0

> <r_epik_Metal_State_Penalty>
0.0203232

> <b_epik_Metal_Only>
0

> <s_lp_Force_Field>
OPLS_2005

> <r_lp_Energy>
23.4593

> <b_lp_Chiralities_Consistent>
1

> <s_lp_Variant>
AV-unprocessed.smi:1770-1

> <Gold.Version>
5.8.1

> <Gold.Id.Protein>
6NUR|6NUR_protein|mol2

> <Gold.PLP.Fitness>
44.2408

> <Gold.PLP.PLP>
-40.3498

> <Gold.PLP.part.hbond>
-3.0000

> <Gold.PLP.part.metal>
0.0000

> <Gold.PLP.part.buried>
-4.1693

> <Gold.PLP.part.nonpolar>
-33.3711

> <Gold.PLP.part.repulsive>
0.2894

> <Gold.PLP.ligand.clash>
0.0000

> <Gold.PLP.ligand.torsion>
0.8168

> <Gold.PLP.Chemscore.Hbond>
1.7360

> <Gold.PLP.Chemscore.CHOScore>
0.0000

> <Gold.PLP.Chemscore.Metal>
0.0000

> <Gold.Chemscore.Hbonds>
donor molecule, donor type, donor heavy atom, donor atom, acceptor molecule, acceptor atom, score
      P1  H  7989  7998       L1     5  1.00
      P1  H  8011  8017       L1     2  0.70

> <Gold.PLP.Chemscore.Internal.Correction>
0.3167

> <Gold.Rescore>
     Score         DG    S(hbond)    S(metal)    S(lipo)     H(rot)  DE(clash)    DE(int)     intcor
     15.22     -18.05       1.46        0.00      96.16       1.39       0.06       2.77       ----

> <Gold.Chemscore.Fitness>
15.2156

> <Gold.Chemscore.DG>
-18.0539

> <Gold.Chemscore.ZeroCoef>
-5.4800

> <Gold.Chemscore.Hbond>
1.4644

> <Gold.Chemscore.Metal>
0.0000

> <Gold.Chemscore.Lipo>
96.1589

> <Gold.Chemscore.Internal_Hbond>
0.0000

> <Gold.Chemscore.DEClash>
0.0634

> <Gold.Chemscore.DEInternal>
2.7749

> <Gold.Chemscore.Rot>
1.3937

> <Gold.Chemscore.Internal.Correction>
   9.000000E+99

> <Gold.Chemscore.Hbonds>
donor molecule, donor type, donor heavy atom, donor atom, acceptor molecule, acceptor atom, score
      P1  H  7989  7998       L1     5  0.59
      P1  H  8011  8017       L1     2  0.15

> <Gold.Chemscore.Hbond.Weighted>
-4.8910

> <Gold.Chemscore.Metal.Weighted>
-0.0000

> <Gold.Chemscore.Lipo.Weighted>
-11.2506

> <Gold.Chemscore.Internal_Hbond.Weighted>
0.0000

> <Gold.Chemscore.DEClash.Weighted>
0.0634

> <Gold.Chemscore.DEInternal.Weighted>
2.7749

> <Gold.Chemscore.Rot.Weighted>
3.5678

> <Gold.Chemscore.Internal.Correction.Weighted>
   9.000000E+99

> <Gold.Protein.RotatedTorsions>
[ 6907 6896 6895 6894 ] final -166.25 input  -60.11 | X-H torsion
[ 7974 7965 7964 7962 ] final   68.01 input  175.53 | X-H torsion
[ 8008 7997 7996 7995 ] final -162.90 input   59.86 | X-H torsion
[ 10167 10162 10161 10158 ] final   57.60 input  -65.29 | X-H torsion
[ 10718 10713 10712 10709 ] final  -12.70 input   66.30 | X-H torsion
[ 10763 10752 10751 10750 ] final   69.80 input  -60.55 | X-H torsion
[ 11005 11000 10999 10996 ] final   18.96 input  -57.11 | X-H torsion

> <Gold.Protein.ActiveResidues>
 VAL166  LYS551  ARG553  GLY616  TRP617  ASP618  TYR619  PRO620  LYS621  CYS622 
 ASP623  PHE694  ASN695  SER759  ASP760  ASP761  ALA762  ILE779  LEU786  VAL792 
 PHE793  MET794  SER795  GLU796  ALA797  LYS798  CYS799  TRP800  GLU811  SER814 

> <Gold.Protein.RotatedAtoms>
  151.4406  133.3644  159.2781 H   0  0  0  0  0  0  0  0  0  0  0  0  # atno 6907 bound_to 6896
  150.9160  134.8579  159.7468 H   0  0  0  0  0  0  0  0  0  0  0  0  # atno 6908 bound_to 6896
  152.4957  134.4340  159.9573 H   0  0  0  0  0  0  0  0  0  0  0  0  # atno 6909 bound_to 6896
  145.8078  139.3016  143.1117 H   0  0  0  0  0  0  0  0  0  0  0  0  # atno 7974 bound_to 7965
  155.8134  140.0909  157.1890 H   0  0  0  0  0  0  0  0  0  0  0  0  # atno 8008 bound_to 7997
  154.3979  140.1450  156.3474 H   0  0  0  0  0  0  0  0  0  0  0  0  # atno 8009 bound_to 7997
  155.8341  140.3441  155.5593 H   0  0  0  0  0  0  0  0  0  0  0  0  # atno 8010 bound_to 7997
  140.1962  144.4035  150.6549 H   0  0  0  0  0  0  0  0  0  0  0  0  # atno 10167 bound_to 10162
  156.6409  130.4928  149.6095 H   0  0  0  0  0  0  0  0  0  0  0  0  # atno 10718 bound_to 10713
  153.0307  135.5197  154.7344 H   0  0  0  0  0  0  0  0  0  0  0  0  # atno 10763 bound_to 10752
  154.6362  135.2906  155.0160 H   0  0  0  0  0  0  0  0  0  0  0  0  # atno 10764 bound_to 10752
  154.1094  135.6624  153.4935 H   0  0  0  0  0  0  0  0  0  0  0  0  # atno 10765 bound_to 10752
  140.4189  134.1539  155.7671 H   0  0  0  0  0  0  0  0  0  0  0  0  # atno 11005 bound_to 11000
  145.9810  140.8683  143.0114 LP  0  0  0  0  0  0  0  0  0  0  0  0  # atno 17320 bound_to 7965
  144.6761  140.2079  143.7380 LP  0  0  0  0  0  0  0  0  0  0  0  0  # atno 17321 bound_to 7965
  140.6422  143.2206  151.6265 LP  0  0  0  0  0  0  0  0  0  0  0  0  # atno 17342 bound_to 10162
  139.5236  144.3129  152.0977 LP  0  0  0  0  0  0  0  0  0  0  0  0  # atno 17343 bound_to 10162
  156.2160  130.6708  151.1319 LP  0  0  0  0  0  0  0  0  0  0  0  0  # atno 17370 bound_to 10713
  157.7171  131.0703  150.6283 LP  0  0  0  0  0  0  0  0  0  0  0  0  # atno 17371 bound_to 10713
  141.1792  133.8450  157.1318 LP  0  0  0  0  0  0  0  0  0  0  0  0  # atno 17394 bound_to 11000
  140.0214  134.9944  157.0599 LP  0  0  0  0  0  0  0  0  0  0  0  0  # atno 17395 bound_to 11000

$$$$
