AV-unprocessed.smi:1111|AV-procd|sdf|4792|dock3
  -GOLD-   22720 3343D 1   1.00000     0.00000
 Structure written by MMmdl.
 32 33  0  0  0  0  0  0  0  0  1 V2000
  149.6660  139.9494  154.3950 C   0  0  0  0  0  0  0  0  0  0  0  0
  150.7003  139.7255  155.5177 C   0  0  1  0  0  0  0  0  0  0  0  0
  151.3008  140.9988  155.9332 N   0  0  0  0  0  0  0  0  0  0  0  0
  150.7476  141.9878  156.6566 C   0  0  0  0  0  0  0  0  0  0  0  0
  149.6359  141.9231  157.1794 O   0  0  0  0  0  0  0  0  0  0  0  0
  151.5752  143.2663  156.7816 C   0  0  0  0  0  0  0  0  0  0  0  0
  151.6584  143.6847  158.1687 N   0  0  0  0  0  0  0  0  0  0  0  0
  152.5398  143.2173  159.1360 C   0  0  0  0  0  0  0  0  0  0  0  0
  152.2635  143.9158  160.2895 C   0  0  0  0  0  0  0  0  0  0  0  0
  151.2221  144.8113  160.0575 N   0  0  0  0  0  0  0  0  0  0  0  0
  150.9172  144.6190  158.7808 C   0  0  0  0  0  0  0  0  0  0  0  0
  150.0120  139.1201  156.7647 C   0  0  0  0  0  0  0  0  0  0  0  0
  151.0726  138.5576  157.7215 C   0  0  0  0  0  0  0  0  0  0  0  0
  152.4556  138.0004  156.6595 S   0  0  0  0  0  0  0  0  0  0  0  0
  153.6736  138.7268  157.0494 O   0  0  0  0  0  0  0  0  0  0  0  0
  152.4458  136.5330  156.5608 O   0  0  0  0  0  0  0  0  0  0  0  0
  151.7930  138.7126  155.1053 C   0  0  0  0  0  0  0  0  0  0  0  0
  149.1491  139.0225  154.1445 H   0  0  0  0  0  0  0  0  0  0  0  0
  150.1298  140.3119  153.4778 H   0  0  0  0  0  0  0  0  0  0  0  0
  148.9089  140.6753  154.6938 H   0  0  0  0  0  0  0  0  0  0  0  0
  152.2249  141.1782  155.5678 H   0  0  0  0  0  0  0  0  0  0  0  0
  152.5833  143.1044  156.3971 H   0  0  0  0  0  0  0  0  0  0  0  0
  151.1257  144.0660  156.1913 H   0  0  0  0  0  0  0  0  0  0  0  0
  153.2737  142.4528  158.9284 H   0  0  0  0  0  0  0  0  0  0  0  0
  152.7320  143.8451  161.2599 H   0  0  0  0  0  0  0  0  0  0  0  0
  150.1390  145.1740  158.2771 H   0  0  0  0  0  0  0  0  0  0  0  0
  149.3636  139.8387  157.2678 H   0  0  0  0  0  0  0  0  0  0  0  0
  149.3704  138.2955  156.4502 H   0  0  0  0  0  0  0  0  0  0  0  0
  151.4507  139.3335  158.3875 H   0  0  0  0  0  0  0  0  0  0  0  0
  150.7030  137.7290  158.3256 H   0  0  0  0  0  0  0  0  0  0  0  0
  151.3564  137.8915  154.5357 H   0  0  0  0  0  0  0  0  0  0  0  0
  152.6043  139.1314  154.5103 H   0  0  0  0  0  0  0  0  0  0  0  0
  1  2  1  0  0  0  0
  1 18  1  0  0  0  0
  1 19  1  0  0  0  0
  1 20  1  0  0  0  0
  2 17  1  0  0  0  0
  2  3  1  0  0  0  0
  2 12  1  0  0  0  0
  3  4  1  0  0  0  0
  3 21  1  0  0  0  0
  4  5  2  0  0  0  0
  4  6  1  0  0  0  0
  6  7  1  0  0  0  0
  6 22  1  0  0  0  0
  6 23  1  0  0  0  0
  7 11  1  0  0  0  0
  7  8  1  0  0  0  0
  8  9  2  0  0  0  0
  8 24  1  0  0  0  0
  9 10  1  0  0  0  0
  9 25  1  0  0  0  0
 10 11  2  0  0  0  0
 11 26  1  0  0  0  0
 12 13  1  0  0  0  0
 12 27  1  0  0  0  0
 12 28  1  0  0  0  0
 13 14  1  0  0  0  0
 13 29  1  0  0  0  0
 13 30  1  0  0  0  0
 14 15  2  0  0  0  0
 14 16  2  0  0  0  0
 14 17  1  0  0  0  0
 17 31  1  0  0  0  0
 17 32  1  0  0  0  0
M  END
> <s_m_source_file>
AV-unprocessed.smi

> <i_m_source_file_index>
1111

> <i_lp_mmshare_version>
43012

> <i_f3d_flags>
0

> <s_epik_input>
Tz1TKD1PKShbQ0gyXTEpW0NIMl1bQ0gyXVtDQEBdMShbQ0gzXSlbTkhdQyg9TylbQ0gyXW4yW2NIXVtjSF1uW2NIXTI=

> <s_epik_cmdline>
J2VwaWtfcHl0aG9uJywgJy1waCcsICc3LjAnLCAnLXRuJywgJzgnLCAnLW1hJywgJzIwMCcsICctbWV0YWxfYmluZGluZycsICctaW1hZScsICc8aW5maWxlLm1hZT4nLCAnLW9tYWUnLCAnPG91dGZpbGUubWFlPic=

> <r_lp_tautomer_probability>
1

> <r_epik_Ionization_Penalty>
0.246342

> <r_epik_Ionization_Penalty_Charging>
0.246341

> <r_epik_Ionization_Penalty_Neutral>
5.91248e-07

> <r_epik_State_Penalty>
0.237514

> <r_epik_Charging_Adjusted_Penalty>
0.483856

> <i_epik_Tot_Q>
0

> <i_epik_Tot_abs_Q>
0

> <r_epik_Metal_State_Penalty>
0.166715

> <b_epik_Metal_Only>
0

> <s_lp_Force_Field>
OPLS_2005

> <r_lp_Energy>
5.37624

> <b_lp_Chiralities_Consistent>
1

> <s_lp_Variant>
AV-unprocessed.smi:1111-1

> <Gold.Version>
5.8.1

> <Gold.Id.Protein>
6NUR|6NUR_protein|mol2

> <Gold.PLP.Fitness>
37.7425

> <Gold.PLP.PLP>
-30.0794

> <Gold.PLP.part.hbond>
-1.7023

> <Gold.PLP.part.metal>
0.0000

> <Gold.PLP.part.buried>
-4.0735

> <Gold.PLP.part.nonpolar>
-24.9230

> <Gold.PLP.part.repulsive>
0.4101

> <Gold.PLP.ligand.clash>
0.0000

> <Gold.PLP.ligand.torsion>
0.6870

> <Gold.PLP.Chemscore.Hbond>
1.9675

> <Gold.PLP.Chemscore.CHOScore>
1.0373

> <Gold.PLP.Chemscore.Metal>
0.0000

> <Gold.Chemscore.Hbonds>
donor molecule, donor type, donor heavy atom, donor atom, acceptor molecule, acceptor atom, score
      P1  H  7997  8008       L1    15  0.96
      P1  H 10752 10763       L1    16  1.00
      L1  C    11    26       P1  8028  0.03
      L1  C    11    26       P1  8029  0.93

> <Gold.PLP.Chemscore.Internal.Correction>
0.0228

> <Gold.Rescore>
     Score         DG    S(hbond)    S(metal)    S(lipo)     H(rot)  DE(clash)    DE(int)     intcor
     12.75     -14.72       1.86        0.00      63.66       1.73       0.33       1.63       ----

> <Gold.Chemscore.Fitness>
12.7495

> <Gold.Chemscore.DG>
-14.7170

> <Gold.Chemscore.ZeroCoef>
-5.4800

> <Gold.Chemscore.Hbond>
1.8638

> <Gold.Chemscore.Metal>
0.0000

> <Gold.Chemscore.Lipo>
63.6568

> <Gold.Chemscore.Internal_Hbond>
0.0000

> <Gold.Chemscore.DEClash>
0.3332

> <Gold.Chemscore.DEInternal>
1.6342

> <Gold.Chemscore.Rot>
1.7328

> <Gold.Chemscore.Internal.Correction>
   9.000000E+99

> <Gold.Chemscore.Hbonds>
donor molecule, donor type, donor heavy atom, donor atom, acceptor molecule, acceptor atom, score
      P1  H  7997  8008       L1    15  0.87
      P1  H 10752 10763       L1    16  0.98

> <Gold.Chemscore.Hbond.Weighted>
-6.2251

> <Gold.Chemscore.Metal.Weighted>
-0.0000

> <Gold.Chemscore.Lipo.Weighted>
-7.4478

> <Gold.Chemscore.Internal_Hbond.Weighted>
0.0000

> <Gold.Chemscore.DEClash.Weighted>
0.3332

> <Gold.Chemscore.DEInternal.Weighted>
1.6342

> <Gold.Chemscore.Rot.Weighted>
4.4360

> <Gold.Chemscore.Internal.Correction.Weighted>
   9.000000E+99

> <Gold.Protein.RotatedTorsions>
[ 6907 6896 6895 6894 ] final  165.71 input  -60.11 | X-H torsion
[ 7974 7965 7964 7962 ] final    3.16 input  175.53 | X-H torsion
[ 8008 7997 7996 7995 ] final  -68.98 input   59.86 | X-H torsion
[ 10167 10162 10161 10158 ] final  134.06 input  -65.29 | X-H torsion
[ 10718 10713 10712 10709 ] final  -27.47 input   66.30 | X-H torsion
[ 10763 10752 10751 10750 ] final   96.88 input  -60.55 | X-H torsion
[ 11005 11000 10999 10996 ] final  162.48 input  -57.11 | X-H torsion

> <Gold.Protein.ActiveResidues>
 VAL166  LYS551  ARG553  GLY616  TRP617  ASP618  TYR619  PRO620  LYS621  CYS622 
 ASP623  PHE694  ASN695  SER759  ASP760  ASP761  ALA762  ILE779  LEU786  VAL792 
 PHE793  MET794  SER795  GLU796  ALA797  LYS798  CYS799  TRP800  GLU811  SER814 

> <Gold.Protein.RotatedAtoms>
  151.8902  133.3514  159.3795 H   0  0  0  0  0  0  0  0  0  0  0  0  # atno 6907 bound_to 6896
  150.7105  134.4931  159.5535 H   0  0  0  0  0  0  0  0  0  0  0  0  # atno 6908 bound_to 6896
  152.2500  134.8142  160.0498 H   0  0  0  0  0  0  0  0  0  0  0  0  # atno 6909 bound_to 6896
  146.2445  140.0728  142.8361 H   0  0  0  0  0  0  0  0  0  0  0  0  # atno 7974 bound_to 7965
  154.4906  140.0862  156.7585 H   0  0  0  0  0  0  0  0  0  0  0  0  # atno 8008 bound_to 7997
  155.4241  140.3447  155.4256 H   0  0  0  0  0  0  0  0  0  0  0  0  # atno 8009 bound_to 7997
  156.1324  140.1505  156.9033 H   0  0  0  0  0  0  0  0  0  0  0  0  # atno 8010 bound_to 7997
  139.5271  144.6586  151.5086 H   0  0  0  0  0  0  0  0  0  0  0  0  # atno 10167 bound_to 10162
  156.4377  130.4458  149.7074 H   0  0  0  0  0  0  0  0  0  0  0  0  # atno 10718 bound_to 10713
  153.2702  135.4203  155.0980 H   0  0  0  0  0  0  0  0  0  0  0  0  # atno 10763 bound_to 10752
  154.8453  135.3470  154.6255 H   0  0  0  0  0  0  0  0  0  0  0  0  # atno 10764 bound_to 10752
  153.6675  135.7045  153.5215 H   0  0  0  0  0  0  0  0  0  0  0  0  # atno 10765 bound_to 10752
  140.2262  134.8159  157.3271 H   0  0  0  0  0  0  0  0  0  0  0  0  # atno 11005 bound_to 11000
  145.0801  140.9215  143.4830 LP  0  0  0  0  0  0  0  0  0  0  0  0  # atno 17320 bound_to 7965
  145.0879  139.2912  143.5750 LP  0  0  0  0  0  0  0  0  0  0  0  0  # atno 17321 bound_to 7965
  140.6423  143.8865  150.6703 LP  0  0  0  0  0  0  0  0  0  0  0  0  # atno 17342 bound_to 10162
  140.2203  143.3814  152.1648 LP  0  0  0  0  0  0  0  0  0  0  0  0  # atno 17343 bound_to 10162
  156.3951  130.7647  151.2650 LP  0  0  0  0  0  0  0  0  0  0  0  0  # atno 17370 bound_to 10713
  157.7507  131.0256  150.3927 LP  0  0  0  0  0  0  0  0  0  0  0  0  # atno 17371 bound_to 10713
  140.1798  134.4504  155.7779 LP  0  0  0  0  0  0  0  0  0  0  0  0  # atno 17394 bound_to 11000
  141.2220  133.6978  156.7849 LP  0  0  0  0  0  0  0  0  0  0  0  0  # atno 17395 bound_to 11000

$$$$
