AV-unprocessed.smi:23|AV-procd|sdf|174|dock1
  -GOLD-   2262015433D 1   1.00000     0.00000
 Structure written by MMmdl.
 53 56  0  0  0  0  0  0  0  0  1 V2000
  153.2347  142.6991  162.4225 C   0  0  0  0  0  0  0  0  0  0  0  0
  152.4132  142.0791  161.4399 O   0  0  0  0  0  0  0  0  0  0  0  0
  152.5916  142.4377  160.0655 C   0  0  2  0  0  0  0  0  0  0  0  0
  154.0889  142.1489  159.8356 C   0  0  0  0  0  0  0  0  0  0  0  0
  152.2682  143.9375  159.8403 C   0  0  0  0  0  0  0  0  0  0  0  0
  152.3802  144.3264  158.3553 C   0  0  0  0  0  0  0  0  0  0  0  0
  151.5379  143.3921  157.4706 C   0  0  0  0  0  0  0  0  0  0  0  0
  151.8720  141.9910  157.7285 N   0  0  0  0  0  0  0  0  0  0  0  0
  151.5057  141.0664  156.8061 C   0  0  0  0  0  0  0  0  0  0  0  0
  152.4307  140.2053  156.3037 N   0  0  0  0  0  0  0  0  0  0  0  0
  152.0804  139.3009  155.3845 C   0  0  0  0  0  0  0  0  0  0  0  0
  150.8810  139.0838  154.8416 N   0  0  0  0  0  0  0  0  0  0  0  0
  149.9454  139.9359  155.3503 C   0  0  0  0  0  0  0  0  0  0  0  0
  150.1718  140.9511  156.3225 C   0  0  0  0  0  0  0  0  0  0  0  0
  148.9843  141.6217  156.5913 N   0  0  0  0  0  0  0  0  0  0  0  0
  148.1106  141.0475  155.8102 C   0  0  0  0  0  0  0  0  0  0  0  0
  148.5952  140.0048  155.0526 N   0  0  0  0  0  0  0  0  0  0  0  0
  147.8656  139.2325  154.0894 C   0  0  0  0  0  0  0  0  0  0  0  0
  146.3597  139.4319  153.8914 C   0  0  0  0  0  0  0  0  0  0  0  0
  146.1779  137.9171  153.6493 C   0  0  0  0  0  0  0  0  0  0  0  0
  145.0115  137.2693  154.4113 C   0  0  0  0  0  0  0  0  0  0  0  0
  143.9284  138.1656  154.5563 O   0  0  0  0  0  0  0  0  0  0  0  0
  146.0793  137.4441  152.1815 C   0  0  0  0  0  0  0  0  0  0  0  0
  147.1266  137.9257  151.3639 O   0  0  0  0  0  0  0  0  0  0  0  0
  147.5542  137.7523  154.3321 C   0  0  0  0  0  0  0  0  0  0  0  0
  151.7296  141.5639  159.1207 C   0  0  0  0  0  0  0  0  0  0  0  0
  152.9932  142.2732  163.3963 H   0  0  0  0  0  0  0  0  0  0  0  0
  153.0535  143.7710  162.4924 H   0  0  0  0  0  0  0  0  0  0  0  0
  154.2966  142.5272  162.2537 H   0  0  0  0  0  0  0  0  0  0  0  0
  154.3981  142.3479  158.8099 H   0  0  0  0  0  0  0  0  0  0  0  0
  154.3204  141.1033  160.0412 H   0  0  0  0  0  0  0  0  0  0  0  0
  154.7132  142.7575  160.4907 H   0  0  0  0  0  0  0  0  0  0  0  0
  151.2511  144.1608  160.1588 H   0  0  0  0  0  0  0  0  0  0  0  0
  152.9232  144.5651  160.4454 H   0  0  0  0  0  0  0  0  0  0  0  0
  152.0568  145.3583  158.2160 H   0  0  0  0  0  0  0  0  0  0  0  0
  153.4220  144.2923  158.0368 H   0  0  0  0  0  0  0  0  0  0  0  0
  150.4763  143.5488  157.6669 H   0  0  0  0  0  0  0  0  0  0  0  0
  151.7112  143.6343  156.4211 H   0  0  0  0  0  0  0  0  0  0  0  0
  152.8749  138.6584  155.0344 H   0  0  0  0  0  0  0  0  0  0  0  0
  147.0795  141.3677  155.7718 H   0  0  0  0  0  0  0  0  0  0  0  0
  148.3965  139.3631  153.1457 H   0  0  0  0  0  0  0  0  0  0  0  0
  145.8616  139.7740  154.8004 H   0  0  0  0  0  0  0  0  0  0  0  0
  146.0974  140.0651  153.0434 H   0  0  0  0  0  0  0  0  0  0  0  0
  144.6609  136.3685  153.9064 H   0  0  0  0  0  0  0  0  0  0  0  0
  145.3225  136.9607  155.4098 H   0  0  0  0  0  0  0  0  0  0  0  0
  143.8455  138.6686  153.7605 H   0  0  0  0  0  0  0  0  0  0  0  0
  146.0918  136.3551  152.1261 H   0  0  0  0  0  0  0  0  0  0  0  0
  145.1416  137.7681  151.7292 H   0  0  0  0  0  0  0  0  0  0  0  0
  147.8876  137.3819  151.4994 H   0  0  0  0  0  0  0  0  0  0  0  0
  148.2359  137.0630  153.8324 H   0  0  0  0  0  0  0  0  0  0  0  0
  147.4780  137.5168  155.3949 H   0  0  0  0  0  0  0  0  0  0  0  0
  151.9866  140.5131  159.2522 H   0  0  0  0  0  0  0  0  0  0  0  0
  150.6724  141.6570  159.3682 H   0  0  0  0  0  0  0  0  0  0  0  0
  1  2  1  0  0  0  0
  1 27  1  0  0  0  0
  1 28  1  0  0  0  0
  1 29  1  0  0  0  0
  2  3  1  0  0  0  0
  3 26  1  0  0  0  0
  3  4  1  0  0  0  0
  3  5  1  0  0  0  0
  4 30  1  0  0  0  0
  4 31  1  0  0  0  0
  4 32  1  0  0  0  0
  5  6  1  0  0  0  0
  5 33  1  0  0  0  0
  5 34  1  0  0  0  0
  6  7  1  0  0  0  0
  6 35  1  0  0  0  0
  6 36  1  0  0  0  0
  7  8  1  0  0  0  0
  7 37  1  0  0  0  0
  7 38  1  0  0  0  0
  8  9  1  0  0  0  0
  8 26  1  0  0  0  0
  9 14  1  0  0  0  0
  9 10  2  0  0  0  0
 10 11  1  0  0  0  0
 11 12  2  0  0  0  0
 11 39  1  0  0  0  0
 12 13  1  0  0  0  0
 13 17  1  0  0  0  0
 13 14  2  0  0  0  0
 14 15  1  0  0  0  0
 15 16  2  0  0  0  0
 16 17  1  0  0  0  0
 16 40  1  0  0  0  0
 17 18  1  0  0  0  0
 18 25  1  0  0  0  0
 18 19  1  0  0  0  0
 18 41  1  0  0  0  0
 19 20  1  0  0  0  0
 19 42  1  0  0  0  0
 19 43  1  0  0  0  0
 20 21  1  0  0  0  0
 20 23  1  0  0  0  0
 20 25  1  0  0  0  0
 21 22  1  0  0  0  0
 21 44  1  0  0  0  0
 21 45  1  0  0  0  0
 22 46  1  0  0  0  0
 23 24  1  0  0  0  0
 23 47  1  0  0  0  0
 23 48  1  0  0  0  0
 24 49  1  0  0  0  0
 25 50  1  0  0  0  0
 25 51  1  0  0  0  0
 26 52  1  0  0  0  0
 26 53  1  0  0  0  0
M  END
> <s_m_source_file>
AV-unprocessed.smi

> <i_m_source_file_index>
23

> <i_lp_mmshare_version>
43012

> <i_f3d_flags>
0

> <s_epik_input>
W0NIM11PW0NAQF0xKFtDSDNdKVtDSDJdW0NIMl1bQ0gyXU4oW0NIMl0xKWMobltjSF1uMiljKGMyMyluW2NIXW4zW0NIXShbQ0gyXTQpW0NIMl1DNChbQ0gyXVtPSF0pW0NIMl1bT0hd

> <s_epik_cmdline>
J2VwaWtfcHl0aG9uJywgJy1waCcsICc3LjAnLCAnLXRuJywgJzgnLCAnLW1hJywgJzIwMCcsICctbWV0YWxfYmluZGluZycsICctaW1hZScsICc8aW5maWxlLm1hZT4nLCAnLW9tYWUnLCAnPG91dGZpbGUubWFlPic=

> <r_lp_tautomer_probability>
1

> <r_epik_Ionization_Penalty>
0.00233978

> <r_epik_Ionization_Penalty_Charging>
0

> <r_epik_Ionization_Penalty_Neutral>
0.00233978

> <r_epik_State_Penalty>
0.00146422

> <r_epik_Charging_Adjusted_Penalty>
0.00146422

> <i_epik_Tot_Q>
0

> <i_epik_Tot_abs_Q>
0

> <r_epik_Metal_State_Penalty>
-0

> <b_epik_Metal_Only>
0

> <s_lp_Force_Field>
OPLS_2005

> <r_lp_Energy>
49.2291

> <b_lp_Chiralities_Consistent>
1

> <s_lp_Variant>
AV-unprocessed.smi:23-2

> <Gold.Version>
5.8.1

> <Gold.Id.Protein>
6NUR|6NUR_protein|mol2

> <Gold.PLP.Fitness>
55.0811

> <Gold.PLP.PLP>
-47.1648

> <Gold.PLP.part.hbond>
-5.3369

> <Gold.PLP.part.metal>
0.0000

> <Gold.PLP.part.buried>
-0.3263

> <Gold.PLP.part.nonpolar>
-41.7809

> <Gold.PLP.part.repulsive>
1.0483

> <Gold.PLP.ligand.clash>
0.0000

> <Gold.PLP.ligand.torsion>
1.3793

> <Gold.PLP.Chemscore.Hbond>
3.2557

> <Gold.PLP.Chemscore.CHOScore>
0.0000

> <Gold.PLP.Chemscore.Metal>
0.0000

> <Gold.Chemscore.Hbonds>
donor molecule, donor type, donor heavy atom, donor atom, acceptor molecule, acceptor atom, score
      L1  H    22    46       P1 10175  0.59
      L1  H    24    49       P1  7948  1.00
      P1  H  7997  8010       L1    10  1.00

> <Gold.PLP.Chemscore.Internal.Correction>
0.9079

> <Gold.Rescore>
     Score         DG    S(hbond)    S(metal)    S(lipo)     H(rot)  DE(clash)    DE(int)     intcor
     16.57     -18.75       2.86        0.00     105.70       3.38       0.69       1.49       ----

> <Gold.Chemscore.Fitness>
16.5708

> <Gold.Chemscore.DG>
-18.7469

> <Gold.Chemscore.ZeroCoef>
-5.4800

> <Gold.Chemscore.Hbond>
2.8629

> <Gold.Chemscore.Metal>
0.0000

> <Gold.Chemscore.Lipo>
105.7009

> <Gold.Chemscore.Internal_Hbond>
0.0000

> <Gold.Chemscore.DEClash>
0.6886

> <Gold.Chemscore.DEInternal>
1.4875

> <Gold.Chemscore.Rot>
3.3837

> <Gold.Chemscore.Internal.Correction>
   9.000000E+99

> <Gold.Chemscore.Hbonds>
donor molecule, donor type, donor heavy atom, donor atom, acceptor molecule, acceptor atom, score
      L1  H    22    46       P1 10175  0.58
      L1  H    24    49       P1  7948  0.97
      P1  H  6933  6945       L1     2  0.01
      P1  H  7997  8010       L1    10  0.39

> <Gold.Chemscore.Hbond.Weighted>
-9.5622

> <Gold.Chemscore.Metal.Weighted>
-0.0000

> <Gold.Chemscore.Lipo.Weighted>
-12.3670

> <Gold.Chemscore.Internal_Hbond.Weighted>
0.0000

> <Gold.Chemscore.DEClash.Weighted>
0.6886

> <Gold.Chemscore.DEInternal.Weighted>
1.4875

> <Gold.Chemscore.Rot.Weighted>
8.6622

> <Gold.Chemscore.Internal.Correction.Weighted>
   9.000000E+99

> <Gold.Protein.RotatedTorsions>
[ 6907 6896 6895 6894 ] final -161.40 input  -60.11 | X-H torsion
[ 7974 7965 7964 7962 ] final -100.02 input  175.53 | X-H torsion
[ 8008 7997 7996 7995 ] final   82.65 input   59.86 | X-H torsion
[ 10167 10162 10161 10158 ] final  -97.90 input  -65.29 | X-H torsion
[ 10718 10713 10712 10709 ] final  -66.90 input   66.30 | X-H torsion
[ 10763 10752 10751 10750 ] final  -81.67 input  -60.55 | X-H torsion
[ 11005 11000 10999 10996 ] final -116.81 input  -57.11 | X-H torsion

> <Gold.Protein.ActiveResidues>
 VAL166  LYS551  ARG553  GLY616  TRP617  ASP618  TYR619  PRO620  LYS621  CYS622 
 ASP623  PHE694  ASN695  SER759  ASP760  ASP761  ALA762  ILE779  LEU786  VAL792 
 PHE793  MET794  SER795  GLU796  ALA797  LYS798  CYS799  TRP800  GLU811  SER814 

> <Gold.Protein.RotatedAtoms>
  151.3640  133.3879  159.2692 H   0  0  0  0  0  0  0  0  0  0  0  0  # atno 6907 bound_to 6896
  150.9703  134.9078  159.7794 H   0  0  0  0  0  0  0  0  0  0  0  0  # atno 6908 bound_to 6896
  152.5182  134.3602  159.9334 H   0  0  0  0  0  0  0  0  0  0  0  0  # atno 6909 bound_to 6896
  145.2999  140.9375  143.2829 H   0  0  0  0  0  0  0  0  0  0  0  0  # atno 7974 bound_to 7965
  155.9135  140.3426  155.6117 H   0  0  0  0  0  0  0  0  0  0  0  0  # atno 8008 bound_to 7997
  155.7359  140.0801  157.2286 H   0  0  0  0  0  0  0  0  0  0  0  0  # atno 8009 bound_to 7997
  154.4059  140.1579  156.2549 H   0  0  0  0  0  0  0  0  0  0  0  0  # atno 8010 bound_to 7997
  140.2786  143.3296  152.0463 H   0  0  0  0  0  0  0  0  0  0  0  0  # atno 10167 bound_to 10162
  156.0587  130.4269  150.1775 H   0  0  0  0  0  0  0  0  0  0  0  0  # atno 10718 bound_to 10713
  154.5664  135.5618  153.7054 H   0  0  0  0  0  0  0  0  0  0  0  0  # atno 10763 bound_to 10752
  153.0034  135.6286  154.2175 H   0  0  0  0  0  0  0  0  0  0  0  0  # atno 10764 bound_to 10752
  154.2114  135.2873  155.2937 H   0  0  0  0  0  0  0  0  0  0  0  0  # atno 10765 bound_to 10752
  141.0397  133.9855  157.3014 H   0  0  0  0  0  0  0  0  0  0  0  0  # atno 11005 bound_to 11000
  144.9102  139.4538  143.6591 LP  0  0  0  0  0  0  0  0  0  0  0  0  # atno 17320 bound_to 7965
  146.3155  139.7905  142.8986 LP  0  0  0  0  0  0  0  0  0  0  0  0  # atno 17321 bound_to 7965
  139.4969  144.6607  151.6471 LP  0  0  0  0  0  0  0  0  0  0  0  0  # atno 17342 bound_to 10162
  140.5830  143.9912  150.6279 LP  0  0  0  0  0  0  0  0  0  0  0  0  # atno 17343 bound_to 10162
  156.9847  130.9875  151.3429 LP  0  0  0  0  0  0  0  0  0  0  0  0  # atno 17370 bound_to 10713
  157.5578  130.8225  149.8227 LP  0  0  0  0  0  0  0  0  0  0  0  0  # atno 17371 bound_to 10713
  139.9266  135.0201  156.8257 LP  0  0  0  0  0  0  0  0  0  0  0  0  # atno 17394 bound_to 11000
  140.6257  133.9952  155.7638 LP  0  0  0  0  0  0  0  0  0  0  0  0  # atno 17395 bound_to 11000

$$$$
