#       Name:                AV-unprocessed.smi:1110
#       Creating user name   scv26
#       Creation time:       Fri Mar 27 03:33:49 2020


#       File generated by GOLD software.
#

@<TRIPOS>MOLECULE
AV-unprocessed.smi:1110
    48    49     1
SMALL
NO_CHARGES


@<TRIPOS>ATOM
      1 ****        -0.8898   1.0101  -3.2595 C.3            1 S1                 0.0000
      2 ****        -1.2044   0.3678  -1.9007 C.3            1 S1                 0.0000
      3 ****        -0.4301  -0.9468  -1.6116 C.3            1 S1                 0.0000
      4 ****         1.1040  -0.7222  -1.6291 C.3            1 S1                 0.0000
      5 ****         1.5239   0.1749  -0.5584 N.am           1 S1                 0.0000
      6 ****         2.7116   0.1485   0.0672 C.2            1 S1                 0.0000
      7 ****         3.5939  -0.6611  -0.2136 O.2            1 S1                 0.0000
      8 ****         2.9612   1.1708   1.1898 C.3            1 S1                 0.0000
      9 ****         1.8190   2.0556   1.4851 N.am           1 S1                 0.0000
     10 ****         0.9324   1.6340   2.4961 C.2            1 S1                 0.0000
     11 ****        -0.1475   2.3537   2.8393 C.2            1 S1                 0.0000
     12 ****        -0.3897   3.5948   2.1425 C.2            1 S1                 0.0000
     13 ****         0.4492   4.0051   1.1704 C.2            1 S1                 0.0000
     14 ****         1.6258   3.2171   0.7860 C.2            1 S1                 0.0000
     15 ****         2.3839   3.5717  -0.1163 O.2            1 S1                 0.0000
     16 ****        -0.8835  -1.5447  -0.3189 N.4            1 S1                 1.0000
     17 ****        -2.3246  -1.9004  -0.2519 C.3            1 S1                 0.0000
     18 ****        -2.4352  -3.2141   0.5339 C.3            1 S1                 0.0000
     19 ****        -1.0551  -3.4165   1.1468 C.3            1 S1                 0.0000
     20 ****        -0.1348  -2.7355   0.1416 C.3            1 S1                 0.0000
     21 ****        -1.5634   1.8451  -3.4536 H              1 S1                 0.0000
     22 ****        -1.0082   0.2942  -4.0732 H              1 S1                 0.0000
     23 ****         0.1258   1.4038  -3.2971 H              1 S1                 0.0000
     24 ****        -1.0218   1.0953  -1.1087 H              1 S1                 0.0000
     25 ****        -2.2773   0.1785  -1.8832 H              1 S1                 0.0000
     26 ****        -0.6658  -1.6612  -2.4022 H              1 S1                 0.0000
     27 ****         1.6238  -1.6782  -1.5549 H              1 S1                 0.0000
     28 ****         1.4263  -0.3028  -2.5814 H              1 S1                 0.0000
     29 ****         0.8624   0.8833  -0.2743 H              1 S1                 0.0000
     30 ****         3.2473   0.6223   2.0886 H              1 S1                 0.0000
     31 ****         3.8428   1.7594   0.9302 H              1 S1                 0.0000
     32 ****         1.1841   0.6938   2.9651 H              1 S1                 0.0000
     33 ****        -0.8170   2.0143   3.6161 H              1 S1                 0.0000
     34 ****        -1.2464   4.1988   2.4035 H              1 S1                 0.0000
     35 ****         0.2528   4.9374   0.6610 H              1 S1                 0.0000
     36 ****        -2.8675  -1.0960   0.2454 H              1 S1                 0.0000
     37 ****        -2.7576  -2.0305  -1.2449 H              1 S1                 0.0000
     38 ****        -3.2259  -3.1901   1.2844 H              1 S1                 0.0000
     39 ****        -2.6546  -4.0338  -0.1519 H              1 S1                 0.0000
     40 ****        -0.9968  -2.9063   2.1093 H              1 S1                 0.0000
     41 ****        -0.8090  -4.4671   1.3052 H              1 S1                 0.0000
     42 ****         0.0489  -3.4051  -0.7005 H              1 S1                 0.0000
     43 ****         0.8256  -2.4714   0.5853 H              1 S1                 0.0000
     44 ****        -0.7377  -0.8444   0.3940 H              1 S1                 0.0000
     45 ****         3.4413  -1.3368  -0.9348 LP             1 S1                 0.0000
     46 ****         4.4638  -0.6437   0.2793 LP             1 S1                 0.0000
     47 ****         3.1711   3.0050  -0.3595 LP             1 S1                 0.0000
     48 ****         2.2126   4.4264  -0.6063 LP             1 S1                 0.0000
@<TRIPOS>BOND
    1    1    2 1     
    2    1   21 1     
    3    1   22 1     
    4    1   23 1     
    5    2    3 1     
    6    2   24 1     
    7    2   25 1     
    8    3    4 1     
    9    3   16 1     
   10    3   26 1     
   11    4    5 1     
   12    4   27 1     
   13    4   28 1     
   14    5    6 am    
   15    5   29 1     
   16    6    7 2     
   17    6    8 1     
   18    8    9 1     
   19    8   30 1     
   20    8   31 1     
   21    9   14 am    
   22    9   10 1     
   23   10   11 2     
   24   10   32 1     
   25   11   12 1     
   26   11   33 1     
   27   12   13 2     
   28   12   34 1     
   29   13   14 1     
   30   13   35 1     
   31   14   15 2     
   32   16   20 1     
   33   16   17 1     
   34   16   44 1     
   35   17   18 1     
   36   17   36 1     
   37   17   37 1     
   38   18   19 1     
   39   18   38 1     
   40   18   39 1     
   41   19   20 1     
   42   19   40 1     
   43   19   41 1     
   44   20   42 1     
   45   20   43 1     
   46    7   45 1     
   47    7   46 1     
   48   15   47 1     
   49   15   48 1     
@<TRIPOS>SUBSTRUCTURE
      1 S1             1
@<TRIPOS>SET
LONE_PAIRS      STATIC     ATOMS    <user>   **** ""
4 45 46 47 48
DONOR_HYDROGENS      STATIC     ATOMS    <user>   **** ""
2 29 44
ATOM$BLUE        STATIC     ATOMS    COLORGROUP SYSTEM
4 45 46 47 48
ATOM$RED        STATIC     ATOMS    COLORGROUP SYSTEM
2 29 44
