AV-unprocessed.smi:110|AV-procd|sdf|1064|dock1
  -GOLD-   2262018143D 1   1.00000     0.00000
 Structure written by MMmdl.
 46 50  0  0  0  0  0  0  0  0  1 V2000
  147.3523  140.8870  152.5136 O   0  0  0  0  0  0  0  0  0  0  0  0
  147.9620  141.2907  153.7215 C   0  0  0  0  0  0  0  0  0  0  0  0
  148.6782  140.1473  154.4716 C   0  0  2  0  0  0  0  0  0  0  0  0
  149.9889  139.8910  153.9889 O   0  0  0  0  0  0  0  0  0  0  0  0
  150.4588  138.7110  154.5735 C   0  0  1  0  0  0  0  0  0  0  0  0
  151.3198  139.0833  155.7420 N   0  0  0  0  0  0  0  0  0  0  0  0
  152.6097  138.6990  156.0412 C   0  0  0  0  0  0  0  0  0  0  0  0
  153.0953  139.1931  157.1475 N   0  0  0  0  0  0  0  0  0  0  0  0
  152.0552  139.9522  157.6715 C   0  0  0  0  0  0  0  0  0  0  0  0
  151.8869  140.7534  158.8374 C   0  0  0  0  0  0  0  0  0  0  0  0
  152.8371  140.9512  159.7808 N   0  0  0  0  0  0  0  0  0  0  0  0
  153.7888  139.8694  160.0731 C   0  0  0  0  0  0  0  0  0  0  0  0
  154.4091  140.1547  161.4539 C   0  0  0  0  0  0  0  0  0  0  0  0
  153.7930  141.4777  161.7760 C   0  0  0  0  0  0  0  0  0  0  0  0
  154.0374  142.2787  162.9051 C   0  0  0  0  0  0  0  0  0  0  0  0
  153.3618  143.5139  163.0030 C   0  0  0  0  0  0  0  0  0  0  0  0
  152.4746  143.9261  161.9815 C   0  0  0  0  0  0  0  0  0  0  0  0
  152.2463  143.1053  160.8549 C   0  0  0  0  0  0  0  0  0  0  0  0
  152.9074  141.8624  160.7743 C   0  0  0  0  0  0  0  0  0  0  0  0
  150.7058  141.4059  158.9862 N   0  0  0  0  0  0  0  0  0  0  0  0
  149.7351  141.2544  158.0809 C   0  0  0  0  0  0  0  0  0  0  0  0
  149.7434  140.5255  156.9637 N   0  0  0  0  0  0  0  0  0  0  0  0
  150.9391  139.8923  156.7904 C   0  0  0  0  0  0  0  0  0  0  0  0
  149.2249  137.9157  155.0606 C   0  0  2  0  0  0  0  0  0  0  0  0
  149.1952  136.5852  154.5779 O   0  0  0  0  0  0  0  0  0  0  0  0
  148.0405  138.7554  154.5706 C   0  0  2  0  0  0  0  0  0  0  0  0
  147.5429  138.3031  153.3233 O   0  0  0  0  0  0  0  0  0  0  0  0
  148.8028  140.5041  155.4957 H   0  0  0  0  0  0  0  0  0  0  0  0
  151.1213  138.1669  153.8990 H   0  0  0  0  0  0  0  0  0  0  0  0
  149.2169  137.8914  156.1516 H   0  0  0  0  0  0  0  0  0  0  0  0
  147.2172  138.7458  155.2854 H   0  0  0  0  0  0  0  0  0  0  0  0
  147.9389  140.2994  152.0620 H   0  0  0  0  0  0  0  0  0  0  0  0
  148.6682  142.0932  153.5065 H   0  0  0  0  0  0  0  0  0  0  0  0
  147.1874  141.7165  154.3597 H   0  0  0  0  0  0  0  0  0  0  0  0
  153.1913  138.0409  155.4124 H   0  0  0  0  0  0  0  0  0  0  0  0
  153.2884  138.9001  160.0637 H   0  0  0  0  0  0  0  0  0  0  0  0
  154.5614  139.8528  159.3034 H   0  0  0  0  0  0  0  0  0  0  0  0
  154.1197  139.4089  162.1948 H   0  0  0  0  0  0  0  0  0  0  0  0
  155.4966  140.2242  161.4127 H   0  0  0  0  0  0  0  0  0  0  0  0
  154.7260  141.9604  163.6738 H   0  0  0  0  0  0  0  0  0  0  0  0
  153.5295  144.1517  163.8584 H   0  0  0  0  0  0  0  0  0  0  0  0
  151.9711  144.8783  162.0607 H   0  0  0  0  0  0  0  0  0  0  0  0
  151.5795  143.4336  160.0715 H   0  0  0  0  0  0  0  0  0  0  0  0
  148.8220  141.7959  158.2793 H   0  0  0  0  0  0  0  0  0  0  0  0
  149.2065  136.6088  153.6335 H   0  0  0  0  0  0  0  0  0  0  0  0
  147.9358  137.4650  153.1297 H   0  0  0  0  0  0  0  0  0  0  0  0
  1  2  1  0  0  0  0
  1 32  1  0  0  0  0
  2  3  1  0  0  0  0
  2 33  1  0  0  0  0
  2 34  1  0  0  0  0
  3 28  1  0  0  0  0
  3 26  1  0  0  0  0
  3  4  1  0  0  0  0
  4  5  1  0  0  0  0
  5 29  1  0  0  0  0
  5  6  1  0  0  0  0
  5 24  1  0  0  0  0
  6 23  1  0  0  0  0
  6  7  1  0  0  0  0
  7  8  2  0  0  0  0
  7 35  1  0  0  0  0
  8  9  1  0  0  0  0
  9 23  2  0  0  0  0
  9 10  1  0  0  0  0
 10 11  1  0  0  0  0
 10 20  2  0  0  0  0
 11 19  1  0  0  0  0
 11 12  1  0  0  0  0
 12 13  1  0  0  0  0
 12 36  1  0  0  0  0
 12 37  1  0  0  0  0
 13 14  1  0  0  0  0
 13 38  1  0  0  0  0
 13 39  1  0  0  0  0
 14 19  2  0  0  0  0
 14 15  1  0  0  0  0
 15 16  2  0  0  0  0
 15 40  1  0  0  0  0
 16 17  1  0  0  0  0
 16 41  1  0  0  0  0
 17 18  2  0  0  0  0
 17 42  1  0  0  0  0
 18 19  1  0  0  0  0
 18 43  1  0  0  0  0
 20 21  1  0  0  0  0
 21 22  2  0  0  0  0
 21 44  1  0  0  0  0
 22 23  1  0  0  0  0
 24 30  1  0  0  0  0
 24 25  1  0  0  0  0
 24 26  1  0  0  0  0
 25 45  1  0  0  0  0
 26 31  1  0  0  0  0
 26 27  1  0  0  0  0
 27 46  1  0  0  0  0
M  END
> <s_m_source_file>
AV-unprocessed.smi

> <i_m_source_file_index>
110

> <i_lp_mmshare_version>
43012

> <i_f3d_flags>
0

> <s_epik_input>
W09IXVtDSDJdW0NASF0xT1tDQEhdKFtDQEhdKFtPSF0pW0NAQEhdMVtPSF0pbihbY0hdbjIpYyhjMjMpbltjSF1uYzNOKFtDSDJdW0NIMl00KWMoYzQ1KVtjSF1bY0hdW2NIXVtjSF01

> <s_epik_cmdline>
J2VwaWtfcHl0aG9uJywgJy1waCcsICc3LjAnLCAnLXRuJywgJzgnLCAnLW1hJywgJzIwMCcsICctbWV0YWxfYmluZGluZycsICctaW1hZScsICc8aW5maWxlLm1hZT4nLCAnLW9tYWUnLCAnPG91dGZpbGUubWFlPic=

> <r_lp_tautomer_probability>
1

> <r_epik_Ionization_Penalty>
0.00068475

> <r_epik_Ionization_Penalty_Charging>
0

> <r_epik_Ionization_Penalty_Neutral>
0.00068475

> <r_epik_State_Penalty>
0.000417442

> <r_epik_Charging_Adjusted_Penalty>
0.000417442

> <i_epik_Tot_Q>
0

> <i_epik_Tot_abs_Q>
0

> <r_epik_Metal_State_Penalty>
-0

> <b_epik_Metal_Only>
0

> <s_epik_Chemistry_Notes>
This compound contains an acetal/aminal-like group ( X-CH(R)-Y where X, Y are N, S, or O) that may be acid/base labile, releasing an aldehyde.

> <s_lp_Force_Field>
OPLS_2005

> <r_lp_Energy>
64.7575

> <b_lp_Chiralities_Consistent>
1

> <s_lp_Variant>
AV-unprocessed.smi:110-2

> <Gold.Version>
5.8.1

> <Gold.Id.Protein>
6NUR|6NUR_protein|mol2

> <Gold.PLP.Fitness>
63.5224

> <Gold.PLP.PLP>
-50.0284

> <Gold.PLP.part.hbond>
-5.4609

> <Gold.PLP.part.metal>
0.0000

> <Gold.PLP.part.buried>
-2.2097

> <Gold.PLP.part.nonpolar>
-43.7920

> <Gold.PLP.part.repulsive>
1.9182

> <Gold.PLP.ligand.clash>
0.4936

> <Gold.PLP.ligand.torsion>
0.4967

> <Gold.PLP.Chemscore.Hbond>
4.9600

> <Gold.PLP.Chemscore.CHOScore>
0.0000

> <Gold.PLP.Chemscore.Metal>
0.0000

> <Gold.Chemscore.Hbonds>
donor molecule, donor type, donor heavy atom, donor atom, acceptor molecule, acceptor atom, score
      L1  H     1    32       P1  7957  0.96
      L1  H    25    45       P1  7948  1.00
      L1  H    27    46       P1  7948  0.98
      P1  H  7989  7998       L1     4  0.93
      P1  H  7997  8008       L1     8  1.00

> <Gold.PLP.Chemscore.Internal.Correction>
0.1010

> <Gold.Rescore>
     Score         DG    S(hbond)    S(metal)    S(lipo)     H(rot)  DE(clash)    DE(int)     intcor
     16.83     -23.22       4.15        0.00     107.21       3.38       2.96       3.43       ----

> <Gold.Chemscore.Fitness>
16.8264

> <Gold.Chemscore.DG>
-23.2186

> <Gold.Chemscore.ZeroCoef>
-5.4800

> <Gold.Chemscore.Hbond>
4.1489

> <Gold.Chemscore.Metal>
0.0000

> <Gold.Chemscore.Lipo>
107.2094

> <Gold.Chemscore.Internal_Hbond>
0.0000

> <Gold.Chemscore.DEClash>
2.9645

> <Gold.Chemscore.DEInternal>
3.4277

> <Gold.Chemscore.Rot>
3.3837

> <Gold.Chemscore.Internal.Correction>
   9.000000E+99

> <Gold.Chemscore.Hbonds>
donor molecule, donor type, donor heavy atom, donor atom, acceptor molecule, acceptor atom, score
      L1  H     1    32       P1  7957  0.92
      L1  H    25    45       P1  7948  0.98
      L1  H    27    46       P1  7948  0.87
      P1  H  7989  7998       L1     4  0.44
      P1  H  7997  8008       L1     8  0.77

> <Gold.Chemscore.Hbond.Weighted>
-13.8573

> <Gold.Chemscore.Metal.Weighted>
-0.0000

> <Gold.Chemscore.Lipo.Weighted>
-12.5435

> <Gold.Chemscore.Internal_Hbond.Weighted>
0.0000

> <Gold.Chemscore.DEClash.Weighted>
2.9645

> <Gold.Chemscore.DEInternal.Weighted>
3.4277

> <Gold.Chemscore.Rot.Weighted>
8.6622

> <Gold.Chemscore.Internal.Correction.Weighted>
   9.000000E+99

> <Gold.Protein.RotatedTorsions>
[ 6907 6896 6895 6894 ] final  -22.25 input  -60.11 | X-H torsion
[ 7974 7965 7964 7962 ] final   23.61 input  175.53 | X-H torsion
[ 8008 7997 7996 7995 ] final  -79.28 input   59.86 | X-H torsion
[ 10167 10162 10161 10158 ] final   17.77 input  -65.29 | X-H torsion
[ 10718 10713 10712 10709 ] final   68.43 input   66.30 | X-H torsion
[ 10763 10752 10751 10750 ] final  163.59 input  -60.55 | X-H torsion
[ 11005 11000 10999 10996 ] final  168.83 input  -57.11 | X-H torsion

> <Gold.Protein.ActiveResidues>
 VAL166  LYS551  ARG553  GLY616  TRP617  ASP618  TYR619  PRO620  LYS621  CYS622 
 ASP623  PHE694  ASN695  SER759  ASP760  ASP761  ALA762  ILE779  LEU786  VAL792 
 PHE793  MET794  SER795  GLU796  ALA797  LYS798  CYS799  TRP800  GLU811  SER814 

> <Gold.Protein.RotatedAtoms>
  151.2214  135.0520  159.8950 H   0  0  0  0  0  0  0  0  0  0  0  0  # atno 6907 bound_to 6896
  152.5415  134.0636  159.8173 H   0  0  0  0  0  0  0  0  0  0  0  0  # atno 6908 bound_to 6896
  151.0803  133.5347  159.2653 H   0  0  0  0  0  0  0  0  0  0  0  0  # atno 6909 bound_to 6896
  146.1976  139.7720  142.8785 H   0  0  0  0  0  0  0  0  0  0  0  0  # atno 7974 bound_to 7965
  154.5770  140.0681  156.9048 H   0  0  0  0  0  0  0  0  0  0  0  0  # atno 8008 bound_to 7997
  155.2531  140.3353  155.4262 H   0  0  0  0  0  0  0  0  0  0  0  0  # atno 8009 bound_to 7997
  156.2161  140.1779  156.7570 H   0  0  0  0  0  0  0  0  0  0  0  0  # atno 8010 bound_to 7997
  140.5702  143.9176  150.6707 H   0  0  0  0  0  0  0  0  0  0  0  0  # atno 10167 bound_to 10162
  157.6288  130.9373  150.0376 H   0  0  0  0  0  0  0  0  0  0  0  0  # atno 10718 bound_to 10713
  154.2960  135.2760  155.2633 H   0  0  0  0  0  0  0  0  0  0  0  0  # atno 10763 bound_to 10752
  154.5091  135.5787  153.6594 H   0  0  0  0  0  0  0  0  0  0  0  0  # atno 10764 bound_to 10752
  152.9907  135.6176  154.3127 H   0  0  0  0  0  0  0  0  0  0  0  0  # atno 10765 bound_to 10752
  140.2914  134.7670  157.3841 H   0  0  0  0  0  0  0  0  0  0  0  0  # atno 11005 bound_to 11000
  145.3591  141.0322  143.3295 LP  0  0  0  0  0  0  0  0  0  0  0  0  # atno 17320 bound_to 7965
  144.8614  139.5172  143.6810 LP  0  0  0  0  0  0  0  0  0  0  0  0  # atno 17321 bound_to 7965
  140.2649  143.3497  152.1290 LP  0  0  0  0  0  0  0  0  0  0  0  0  # atno 17342 bound_to 10162
  139.5113  144.6899  151.5788 LP  0  0  0  0  0  0  0  0  0  0  0  0  # atno 17343 bound_to 10162
  156.1478  130.3642  149.9484 LP  0  0  0  0  0  0  0  0  0  0  0  0  # atno 17370 bound_to 10713
  156.7510  130.9115  151.3637 LP  0  0  0  0  0  0  0  0  0  0  0  0  # atno 17371 bound_to 10713
  140.1192  134.5242  155.8198 LP  0  0  0  0  0  0  0  0  0  0  0  0  # atno 17394 bound_to 11000
  141.2145  133.6750  156.6834 LP  0  0  0  0  0  0  0  0  0  0  0  0  # atno 17395 bound_to 11000

$$$$
