#       Name:                AV-unprocessed.smi:828
#       Creating user name   scv26
#       Creation time:       Fri Mar 27 01:31:10 2020


#       File generated by GOLD software.
#

@<TRIPOS>MOLECULE
AV-unprocessed.smi:828
    39    40     1
SMALL
NO_CHARGES


@<TRIPOS>ATOM
      1 ****        -6.9404   2.1091   0.8275 C.3            1 S1                 0.0000
      2 ****        -5.5021   1.7178   0.8376 C.2            1 S1                 0.0000
      3 ****        -4.5075   2.6136   0.8496 N.2            1 S1                 0.0000
      4 ****        -3.2570   2.0116   0.8575 N.2            1 S1                 0.0000
      5 ****        -3.3462   0.6745   0.8497 C.2            1 S1                 0.0000
      6 ****        -2.2205  -0.1914   0.8547 N.am           1 S1                 0.0000
      7 ****        -0.9173   0.1370   0.8978 C.2            1 S1                 0.0000
      8 ****        -0.4728   1.2843   0.9428 O.2            1 S1                 0.0000
      9 ****        -0.1398  -0.9559   0.8829 N.am           1 S1                 0.0000
     10 ****         1.3201  -0.9585   0.9328 C.3            1 S1                 0.0000
     11 ****         1.9481  -1.1243  -0.4738 C.3            1 S1                 0.0000
     12 ****         1.5563  -0.0241  -1.4728 C.3            1 S1                 0.0000
     13 ****         2.7013  -0.0210  -2.4748 C.3            1 S1                 0.0000
     14 ****         3.9110  -0.2857  -1.5847 C.3            1 S1                 0.0000
     15 ****         3.4396  -1.2039  -0.5232 N.4            1 S1                 1.0000
     16 ****         4.1865  -1.0559   0.7482 C.3            1 S1                 0.0000
     17 ****        -4.9816   0.0370   0.8281 S.3            1 S1                 0.0000
     18 ****        -7.0651   3.1191   1.2193 H              1 S1                 0.0000
     19 ****        -7.5203   1.4231   1.4451 H              1 S1                 0.0000
     20 ****        -7.3275   2.0772  -0.1909 H              1 S1                 0.0000
     21 ****        -2.4350  -1.1773   0.8267 H              1 S1                 0.0000
     22 ****        -0.5929  -1.8575   0.8463 H              1 S1                 0.0000
     23 ****         1.6826  -0.0517   1.4198 H              1 S1                 0.0000
     24 ****         1.6086  -1.7919   1.5732 H              1 S1                 0.0000
     25 ****         1.6012  -2.0748  -0.8822 H              1 S1                 0.0000
     26 ****         0.5870  -0.2009  -1.9399 H              1 S1                 0.0000
     27 ****         1.5162   0.9445  -0.9726 H              1 S1                 0.0000
     28 ****         2.5752  -0.8333  -3.1921 H              1 S1                 0.0000
     29 ****         2.7790   0.9145  -3.0295 H              1 S1                 0.0000
     30 ****         4.7520  -0.7077  -2.1355 H              1 S1                 0.0000
     31 ****         4.2403   0.6555  -1.1405 H              1 S1                 0.0000
     32 ****         4.0173  -0.0782   1.2009 H              1 S1                 0.0000
     33 ****         5.2566  -1.1578   0.5651 H              1 S1                 0.0000
     34 ****         3.9068  -1.8298   1.4628 H              1 S1                 0.0000
     35 ****         3.6405  -2.1366  -0.8550 H              1 S1                 0.0000
     36 ****        -4.6493   3.6035   0.8525 LP             1 S1                 0.0000
     37 ****        -2.3931   2.5152   0.8678 LP             1 S1                 0.0000
     38 ****        -1.0996   2.0634   0.9495 LP             1 S1                 0.0000
     39 ****         0.5150   1.4370   0.9726 LP             1 S1                 0.0000
@<TRIPOS>BOND
    1    1    2 1     
    2    1   18 1     
    3    1   19 1     
    4    1   20 1     
    5    2   17 1     
    6    2    3 2     
    7    3    4 1     
    8    4    5 2     
    9    5    6 1     
   10    5   17 1     
   11    6    7 am    
   12    6   21 1     
   13    7    8 2     
   14    7    9 am    
   15    9   10 1     
   16    9   22 1     
   17   10   11 1     
   18   10   23 1     
   19   10   24 1     
   20   11   15 1     
   21   11   12 1     
   22   11   25 1     
   23   12   13 1     
   24   12   26 1     
   25   12   27 1     
   26   13   14 1     
   27   13   28 1     
   28   13   29 1     
   29   14   15 1     
   30   14   30 1     
   31   14   31 1     
   32   15   16 1     
   33   15   35 1     
   34   16   32 1     
   35   16   33 1     
   36   16   34 1     
   37    3   36 1     
   38    4   37 1     
   39    8   38 1     
   40    8   39 1     
@<TRIPOS>SUBSTRUCTURE
      1 S1             1
@<TRIPOS>SET
LONE_PAIRS      STATIC     ATOMS    <user>   **** ""
4 36 37 38 39
DONOR_HYDROGENS      STATIC     ATOMS    <user>   **** ""
3 21 22 35
ATOM$BLUE        STATIC     ATOMS    COLORGROUP SYSTEM
4 36 37 38 39
ATOM$RED        STATIC     ATOMS    COLORGROUP SYSTEM
3 21 22 35
