AV-unprocessed.smi:232|AV-procd|sdf|1775|dock4
  -GOLD-   2262020313D 1   1.00000     0.00000
 Structure written by MMmdl.
 52 55  0  0  0  0  0  0  0  0  1 V2000
  153.0997  140.9629  158.9082 C   0  0  0  0  0  0  0  0  0  0  0  0
  151.6043  140.9628  158.5641 C   0  0  0  0  0  0  0  0  0  0  0  0
  151.1492  139.7148  157.7850 C   0  0  2  0  0  0  0  0  0  0  0  0
  151.8059  138.4192  158.2885 C   0  0  0  0  0  0  0  0  0  0  0  0
  151.9462  137.5736  157.0278 C   0  0  0  0  0  0  0  0  0  0  0  0
  152.2782  138.6377  155.9858 C   0  0  1  0  0  0  0  0  0  0  0  0
  152.1764  138.1526  154.5251 C   0  0  0  0  0  0  0  0  0  0  0  0
  151.4661  139.8014  156.3541 N   0  0  0  0  0  0  0  0  0  0  0  0
  150.4615  140.1685  155.5224 C   0  0  0  0  0  0  0  0  0  0  0  0
  150.4579  141.3987  154.9437 N   0  0  0  0  0  0  0  0  0  0  0  0
  149.4507  141.7557  154.1406 C   0  0  0  0  0  0  0  0  0  0  0  0
  148.3694  141.0535  153.7934 N   0  0  0  0  0  0  0  0  0  0  0  0
  148.3699  139.8223  154.3806 C   0  0  0  0  0  0  0  0  0  0  0  0
  149.3677  139.3053  155.2521 C   0  0  0  0  0  0  0  0  0  0  0  0
  149.0300  138.0203  155.6573 N   0  0  0  0  0  0  0  0  0  0  0  0
  147.8931  137.7898  155.0587 C   0  0  0  0  0  0  0  0  0  0  0  0
  147.4237  138.8195  154.2742 N   0  0  0  0  0  0  0  0  0  0  0  0
  146.1933  138.8406  153.5036 C   0  0  0  0  0  0  0  0  0  0  0  0
  146.3476  138.1464  152.1359 C   0  0  2  0  0  0  0  0  0  0  0  0
  146.1299  139.0951  151.1084 O   0  0  0  0  0  0  0  0  0  0  0  0
  145.3596  136.9792  151.9549 C   0  0  1  0  0  0  0  0  0  0  0  0
  145.4942  136.2424  150.6197 C   0  0  0  0  0  0  0  0  0  0  0  0
  144.9559  134.8734  150.9644 C   0  0  0  0  0  0  0  0  0  0  0  0
  145.5109  134.6748  152.3701 C   0  0  0  0  0  0  0  0  0  0  0  0
  145.5840  135.9764  152.9455 O   0  0  0  0  0  0  0  0  0  0  0  0
  153.3842  141.8963  159.3944 H   0  0  0  0  0  0  0  0  0  0  0  0
  153.7103  140.8554  158.0113 H   0  0  0  0  0  0  0  0  0  0  0  0
  153.3538  140.1497  159.5878 H   0  0  0  0  0  0  0  0  0  0  0  0
  151.0178  141.0664  159.4778 H   0  0  0  0  0  0  0  0  0  0  0  0
  151.3921  141.8484  157.9643 H   0  0  0  0  0  0  0  0  0  0  0  0
  150.0739  139.6038  157.9282 H   0  0  0  0  0  0  0  0  0  0  0  0
  152.7972  138.6265  158.6950 H   0  0  0  0  0  0  0  0  0  0  0  0
  151.2232  137.9258  159.0668 H   0  0  0  0  0  0  0  0  0  0  0  0
  152.7162  136.8062  157.1132 H   0  0  0  0  0  0  0  0  0  0  0  0
  150.9983  137.0874  156.7922 H   0  0  0  0  0  0  0  0  0  0  0  0
  153.3123  138.9471  156.1443 H   0  0  0  0  0  0  0  0  0  0  0  0
  152.8570  137.3192  154.3499 H   0  0  0  0  0  0  0  0  0  0  0  0
  152.4442  138.9434  153.8238 H   0  0  0  0  0  0  0  0  0  0  0  0
  151.1717  137.8072  154.2798 H   0  0  0  0  0  0  0  0  0  0  0  0
  149.5189  142.7474  153.7183 H   0  0  0  0  0  0  0  0  0  0  0  0
  147.3597  136.8579  155.1780 H   0  0  0  0  0  0  0  0  0  0  0  0
  145.4191  138.3499  154.0944 H   0  0  0  0  0  0  0  0  0  0  0  0
  145.8771  139.8768  153.3752 H   0  0  0  0  0  0  0  0  0  0  0  0
  147.3668  137.7703  152.0368 H   0  0  0  0  0  0  0  0  0  0  0  0
  145.3274  138.8741  150.6614 H   0  0  0  0  0  0  0  0  0  0  0  0
  144.3324  137.3299  152.0691 H   0  0  0  0  0  0  0  0  0  0  0  0
  144.9466  136.7250  149.8099 H   0  0  0  0  0  0  0  0  0  0  0  0
  146.5419  136.1658  150.3249 H   0  0  0  0  0  0  0  0  0  0  0  0
  143.8655  134.8931  150.9875 H   0  0  0  0  0  0  0  0  0  0  0  0
  145.2718  134.0975  150.2666 H   0  0  0  0  0  0  0  0  0  0  0  0
  144.8952  134.0053  152.9710 H   0  0  0  0  0  0  0  0  0  0  0  0
  146.5189  134.2607  152.3262 H   0  0  0  0  0  0  0  0  0  0  0  0
  1  2  1  0  0  0  0
  1 26  1  0  0  0  0
  1 27  1  0  0  0  0
  1 28  1  0  0  0  0
  2  3  1  0  0  0  0
  2 29  1  0  0  0  0
  2 30  1  0  0  0  0
  3  8  1  0  0  0  0
  3  4  1  0  0  0  0
  3 31  1  0  0  0  0
  4  5  1  0  0  0  0
  4 32  1  0  0  0  0
  4 33  1  0  0  0  0
  5  6  1  0  0  0  0
  5 34  1  0  0  0  0
  5 35  1  0  0  0  0
  6  7  1  0  0  0  0
  6  8  1  0  0  0  0
  6 36  1  0  0  0  0
  7 37  1  0  0  0  0
  7 38  1  0  0  0  0
  7 39  1  0  0  0  0
  8  9  1  0  0  0  0
  9 14  1  0  0  0  0
  9 10  2  0  0  0  0
 10 11  1  0  0  0  0
 11 12  2  0  0  0  0
 11 40  1  0  0  0  0
 12 13  1  0  0  0  0
 13 17  1  0  0  0  0
 13 14  2  0  0  0  0
 14 15  1  0  0  0  0
 15 16  2  0  0  0  0
 16 17  1  0  0  0  0
 16 41  1  0  0  0  0
 17 18  1  0  0  0  0
 18 19  1  0  0  0  0
 18 42  1  0  0  0  0
 18 43  1  0  0  0  0
 19 20  1  0  0  0  0
 19 21  1  0  0  0  0
 19 44  1  0  0  0  0
 20 45  1  0  0  0  0
 21 25  1  0  0  0  0
 21 22  1  0  0  0  0
 21 46  1  0  0  0  0
 22 23  1  0  0  0  0
 22 47  1  0  0  0  0
 22 48  1  0  0  0  0
 23 24  1  0  0  0  0
 23 49  1  0  0  0  0
 23 50  1  0  0  0  0
 24 25  1  0  0  0  0
 24 51  1  0  0  0  0
 24 52  1  0  0  0  0
M  END
> <s_m_source_file>
AV-unprocessed.smi

> <i_m_source_file_index>
232

> <i_lp_mmshare_version>
43012

> <i_f3d_flags>
0

> <s_epik_input>
W0NIM11bQ0gyXVtDQEBIXTFbQ0gyXVtDSDJdW0NAQEhdKFtDSDNdKU4xYyhuW2NIXW4yKWMoYzIzKW5bY0hdbjNbQ0gyXVtDQEhdKFtPSF0pW0NAQEhdNFtDSDJdW0NIMl1bQ0gyXU80

> <s_epik_cmdline>
J2VwaWtfcHl0aG9uJywgJy1waCcsICc3LjAnLCAnLXRuJywgJzgnLCAnLW1hJywgJzIwMCcsICctbWV0YWxfYmluZGluZycsICctaW1hZScsICc8aW5maWxlLm1hZT4nLCAnLW9tYWUnLCAnPG91dGZpbGUubWFlPic=

> <r_lp_tautomer_probability>
1

> <r_epik_Ionization_Penalty>
0.00258048

> <r_epik_Ionization_Penalty_Charging>
0

> <r_epik_Ionization_Penalty_Neutral>
0.00258048

> <r_epik_State_Penalty>
0.00168551

> <r_epik_Charging_Adjusted_Penalty>
0.00168551

> <i_epik_Tot_Q>
0

> <i_epik_Tot_abs_Q>
0

> <r_epik_Metal_State_Penalty>
-0

> <b_epik_Metal_Only>
0

> <s_lp_Force_Field>
OPLS_2005

> <r_lp_Energy>
56.7631

> <b_lp_Chiralities_Consistent>
1

> <s_lp_Variant>
AV-unprocessed.smi:232-9

> <Gold.Version>
5.8.1

> <Gold.Id.Protein>
6NUR|6NUR_protein|mol2

> <Gold.PLP.Fitness>
38.5795

> <Gold.PLP.PLP>
-35.1864

> <Gold.PLP.part.hbond>
-3.0000

> <Gold.PLP.part.metal>
0.0000

> <Gold.PLP.part.buried>
-4.3086

> <Gold.PLP.part.nonpolar>
-27.7893

> <Gold.PLP.part.repulsive>
0.3934

> <Gold.PLP.ligand.clash>
0.0000

> <Gold.PLP.ligand.torsion>
1.3770

> <Gold.PLP.Chemscore.Hbond>
1.0732

> <Gold.PLP.Chemscore.CHOScore>
0.8991

> <Gold.PLP.Chemscore.Metal>
0.0000

> <Gold.Chemscore.Hbonds>
donor molecule, donor type, donor heavy atom, donor atom, acceptor molecule, acceptor atom, score
      L1  H    20    45       P1 10171  1.00
      P1  H  7989  7998       L1    10  0.25
      L1  C    11    40       P1  8028  0.19

> <Gold.PLP.Chemscore.Internal.Correction>
0.2302

> <Gold.Rescore>
     Score         DG    S(hbond)    S(metal)    S(lipo)     H(rot)  DE(clash)    DE(int)     intcor
     10.34     -11.98       0.99        0.00      80.26       2.43       0.52       1.11       ----

> <Gold.Chemscore.Fitness>
10.3444

> <Gold.Chemscore.DG>
-11.9788

> <Gold.Chemscore.ZeroCoef>
-5.4800

> <Gold.Chemscore.Hbond>
0.9938

> <Gold.Chemscore.Metal>
0.0000

> <Gold.Chemscore.Lipo>
80.2579

> <Gold.Chemscore.Internal_Hbond>
0.0000

> <Gold.Chemscore.DEClash>
0.5245

> <Gold.Chemscore.DEInternal>
1.1098

> <Gold.Chemscore.Rot>
2.4260

> <Gold.Chemscore.Internal.Correction>
   9.000000E+99

> <Gold.Chemscore.Hbonds>
donor molecule, donor type, donor heavy atom, donor atom, acceptor molecule, acceptor atom, score
      L1  H    20    45       P1 10171  1.00

> <Gold.Chemscore.Hbond.Weighted>
-3.3193

> <Gold.Chemscore.Metal.Weighted>
-0.0000

> <Gold.Chemscore.Lipo.Weighted>
-9.3902

> <Gold.Chemscore.Internal_Hbond.Weighted>
0.0000

> <Gold.Chemscore.DEClash.Weighted>
0.5245

> <Gold.Chemscore.DEInternal.Weighted>
1.1098

> <Gold.Chemscore.Rot.Weighted>
6.2107

> <Gold.Chemscore.Internal.Correction.Weighted>
   9.000000E+99

> <Gold.Protein.RotatedTorsions>
[ 6907 6896 6895 6894 ] final  104.31 input  -60.11 | X-H torsion
[ 7974 7965 7964 7962 ] final  -87.78 input  175.53 | X-H torsion
[ 8008 7997 7996 7995 ] final  -39.86 input   59.86 | X-H torsion
[ 10167 10162 10161 10158 ] final  163.16 input  -65.29 | X-H torsion
[ 10718 10713 10712 10709 ] final   37.83 input   66.30 | X-H torsion
[ 10763 10752 10751 10750 ] final -149.62 input  -60.55 | X-H torsion
[ 11005 11000 10999 10996 ] final   31.69 input  -57.11 | X-H torsion

> <Gold.Protein.ActiveResidues>
 VAL166  LYS551  ARG553  GLY616  TRP617  ASP618  TYR619  PRO620  LYS621  CYS622 
 ASP623  PHE694  ASN695  SER759  ASP760  ASP761  ALA762  ILE779  LEU786  VAL792 
 PHE793  MET794  SER795  GLU796  ALA797  LYS798  CYS799  TRP800  GLU811  SER814 

> <Gold.Protein.RotatedAtoms>
  152.5268  133.9695  159.7754 H   0  0  0  0  0  0  0  0  0  0  0  0  # atno 6907 bound_to 6896
  150.9970  133.6085  159.2707 H   0  0  0  0  0  0  0  0  0  0  0  0  # atno 6908 bound_to 6896
  151.3208  135.0824  159.9358 H   0  0  0  0  0  0  0  0  0  0  0  0  # atno 6909 bound_to 6896
  145.4620  140.9561  143.1964 H   0  0  0  0  0  0  0  0  0  0  0  0  # atno 7974 bound_to 7965
  154.4018  140.1540  156.2932 H   0  0  0  0  0  0  0  0  0  0  0  0  # atno 8008 bound_to 7997
  155.8767  140.3446  155.5837 H   0  0  0  0  0  0  0  0  0  0  0  0  # atno 8009 bound_to 7997
  155.7714  140.0831  157.2097 H   0  0  0  0  0  0  0  0  0  0  0  0  # atno 8010 bound_to 7997
  139.4870  144.4365  151.9005 H   0  0  0  0  0  0  0  0  0  0  0  0  # atno 10167 bound_to 10162
  157.3516  130.7601  149.6982 H   0  0  0  0  0  0  0  0  0  0  0  0  # atno 10718 bound_to 10713
  154.8166  135.3304  154.7157 H   0  0  0  0  0  0  0  0  0  0  0  0  # atno 10763 bound_to 10752
  153.7797  135.6919  153.4895 H   0  0  0  0  0  0  0  0  0  0  0  0  # atno 10764 bound_to 10752
  153.1989  135.4523  155.0189 H   0  0  0  0  0  0  0  0  0  0  0  0  # atno 10765 bound_to 10752
  140.2813  134.2970  155.7800 H   0  0  0  0  0  0  0  0  0  0  0  0  # atno 11005 bound_to 11000
  144.7997  139.6165  143.7077 LP  0  0  0  0  0  0  0  0  0  0  0  0  # atno 17320 bound_to 7965
  146.2446  139.6071  142.9468 LP  0  0  0  0  0  0  0  0  0  0  0  0  # atno 17321 bound_to 7965
  140.3815  144.2730  150.5908 LP  0  0  0  0  0  0  0  0  0  0  0  0  # atno 17342 bound_to 10162
  140.5229  143.2261  151.8361 LP  0  0  0  0  0  0  0  0  0  0  0  0  # atno 17343 bound_to 10162
  155.9722  130.4139  150.4105 LP  0  0  0  0  0  0  0  0  0  0  0  0  # atno 17370 bound_to 10713
  157.2168  131.0473  151.2568 LP  0  0  0  0  0  0  0  0  0  0  0  0  # atno 17371 bound_to 10713
  141.2162  133.7527  156.9484 LP  0  0  0  0  0  0  0  0  0  0  0  0  # atno 17394 bound_to 11000
  140.1281  134.9374  157.2298 LP  0  0  0  0  0  0  0  0  0  0  0  0  # atno 17395 bound_to 11000

$$$$
