AV-unprocessed.smi:1905|AV-procd|sdf|7726|dock5
  -GOLD-   22720 9463D 1   1.00000     0.00000
 Structure written by MMmdl.
 38 39  0  0  0  0  0  0  0  0  1 V2000
  151.7815  138.6460  155.8920 C   0  0  0  0  0  0  0  0  0  0  0  0
  151.7105  138.3721  154.3881 C   0  0  0  0  0  0  0  0  0  0  0  0
  150.3413  138.2987  154.0033 O   0  0  0  0  0  0  0  0  0  0  0  0
  149.5456  139.4182  154.1581 C   0  0  0  0  0  0  0  0  0  0  0  0
  150.1049  140.5407  154.6755 N   0  0  0  0  0  0  0  0  0  0  0  0
  149.3308  141.6348  154.8233 C   0  0  0  0  0  0  0  0  0  0  0  0
  147.9721  141.6710  154.4611 C   0  0  0  0  0  0  0  0  0  0  0  0
  147.3893  140.5080  153.9241 C   0  0  0  0  0  0  0  0  0  0  0  0
  148.1861  139.3462  153.7736 C   0  0  0  0  0  0  0  0  0  0  0  0
  147.7155  138.1168  153.2319 N   0  0  0  0  0  0  0  0  0  0  0  0
  146.4669  137.6208  153.1969 C   0  0  0  0  0  0  0  0  0  0  0  0
  145.4649  138.1660  153.6578 O   0  0  0  0  0  0  0  0  0  0  0  0
  146.4441  136.4230  152.5960 N   0  0  0  0  0  0  0  0  0  0  0  0
  145.2520  135.6076  152.3888 C   0  0  0  0  0  0  0  0  0  0  0  0
  145.3354  134.7599  151.1041 C   0  0  1  0  0  0  0  0  0  0  0  0
  146.5178  133.7978  151.0742 C   0  0  0  0  0  0  0  0  0  0  0  0
  145.9614  132.5295  150.4179 C   0  0  0  0  0  0  0  0  0  0  0  0
  144.6617  132.8779  149.9629 O   0  0  0  0  0  0  0  0  0  0  0  0
  144.1420  133.8356  150.8685 C   0  0  0  0  0  0  0  0  0  0  0  0
  152.8165  138.7052  156.2295 H   0  0  0  0  0  0  0  0  0  0  0  0
  151.2900  137.8540  156.4574 H   0  0  0  0  0  0  0  0  0  0  0  0
  151.2936  139.5887  156.1411 H   0  0  0  0  0  0  0  0  0  0  0  0
  152.2188  139.1719  153.8468 H   0  0  0  0  0  0  0  0  0  0  0  0
  152.2189  137.4332  154.1625 H   0  0  0  0  0  0  0  0  0  0  0  0
  149.8101  142.5087  155.2390 H   0  0  0  0  0  0  0  0  0  0  0  0
  147.3904  142.5718  154.5895 H   0  0  0  0  0  0  0  0  0  0  0  0
  146.3520  140.5412  153.6321 H   0  0  0  0  0  0  0  0  0  0  0  0
  148.4355  137.5160  152.8581 H   0  0  0  0  0  0  0  0  0  0  0  0
  147.3157  136.0493  152.2497 H   0  0  0  0  0  0  0  0  0  0  0  0
  145.0893  134.9647  153.2552 H   0  0  0  0  0  0  0  0  0  0  0  0
  144.3946  136.2793  152.3379 H   0  0  0  0  0  0  0  0  0  0  0  0
  145.4231  135.4197  150.2392 H   0  0  0  0  0  0  0  0  0  0  0  0
  147.3471  134.2183  150.5043 H   0  0  0  0  0  0  0  0  0  0  0  0
  146.8862  133.5709  152.0754 H   0  0  0  0  0  0  0  0  0  0  0  0
  146.5821  132.1777  149.5937 H   0  0  0  0  0  0  0  0  0  0  0  0
  145.8802  131.7247  151.1497 H   0  0  0  0  0  0  0  0  0  0  0  0
  143.8325  133.3397  151.7901 H   0  0  0  0  0  0  0  0  0  0  0  0
  143.2810  134.3570  150.4495 H   0  0  0  0  0  0  0  0  0  0  0  0
  1  2  1  0  0  0  0
  1 20  1  0  0  0  0
  1 21  1  0  0  0  0
  1 22  1  0  0  0  0
  2  3  1  0  0  0  0
  2 23  1  0  0  0  0
  2 24  1  0  0  0  0
  3  4  1  0  0  0  0
  4  9  1  0  0  0  0
  4  5  2  0  0  0  0
  5  6  1  0  0  0  0
  6  7  2  0  0  0  0
  6 25  1  0  0  0  0
  7  8  1  0  0  0  0
  7 26  1  0  0  0  0
  8  9  2  0  0  0  0
  8 27  1  0  0  0  0
  9 10  1  0  0  0  0
 10 11  1  0  0  0  0
 10 28  1  0  0  0  0
 11 12  2  0  0  0  0
 11 13  1  0  0  0  0
 13 14  1  0  0  0  0
 13 29  1  0  0  0  0
 14 15  1  0  0  0  0
 14 30  1  0  0  0  0
 14 31  1  0  0  0  0
 15 19  1  0  0  0  0
 15 16  1  0  0  0  0
 15 32  1  0  0  0  0
 16 17  1  0  0  0  0
 16 33  1  0  0  0  0
 16 34  1  0  0  0  0
 17 18  1  0  0  0  0
 17 35  1  0  0  0  0
 17 36  1  0  0  0  0
 18 19  1  0  0  0  0
 19 37  1  0  0  0  0
 19 38  1  0  0  0  0
M  END
> <s_m_source_file>
AV-unprocessed.smi

> <i_m_source_file_index>
1905

> <i_lp_mmshare_version>
43012

> <i_f3d_flags>
0

> <s_epik_input>
W0NIM11bQ0gyXU9jMW5bY0hdW2NIXVtjSF1jMVtOSF1DKD1PKVtOSF1bQ0gyXVtDQEBIXTJbQ0gyXVtDSDJdT1tDSDJdMg==

> <s_epik_cmdline>
J2VwaWtfcHl0aG9uJywgJy1waCcsICc3LjAnLCAnLXRuJywgJzgnLCAnLW1hJywgJzIwMCcsICctbWV0YWxfYmluZGluZycsICctaW1hZScsICc8aW5maWxlLm1hZT4nLCAnLW9tYWUnLCAnPG91dGZpbGUubWFlPic=

> <r_lp_tautomer_probability>
1

> <r_epik_Ionization_Penalty>
0.000115153

> <r_epik_Ionization_Penalty_Charging>
0

> <r_epik_Ionization_Penalty_Neutral>
0.000115153

> <r_epik_State_Penalty>
-0

> <r_epik_Charging_Adjusted_Penalty>
0

> <i_epik_Tot_Q>
0

> <i_epik_Tot_abs_Q>
0

> <r_epik_Metal_State_Penalty>
-0

> <b_epik_Metal_Only>
0

> <s_lp_Force_Field>
OPLS_2005

> <r_lp_Energy>
21.5364

> <b_lp_Chiralities_Consistent>
1

> <s_lp_Variant>
AV-unprocessed.smi:1905-2

> <Gold.Version>
5.8.1

> <Gold.Id.Protein>
6NUR|6NUR_protein|mol2

> <Gold.PLP.Fitness>
43.0567

> <Gold.PLP.PLP>
-32.0409

> <Gold.PLP.part.hbond>
-3.0000

> <Gold.PLP.part.metal>
0.0000

> <Gold.PLP.part.buried>
-3.6779

> <Gold.PLP.part.nonpolar>
-26.5078

> <Gold.PLP.part.repulsive>
0.8679

> <Gold.PLP.ligand.clash>
0.0000

> <Gold.PLP.ligand.torsion>
0.3237

> <Gold.PLP.Chemscore.Hbond>
2.9120

> <Gold.PLP.Chemscore.CHOScore>
0.9739

> <Gold.PLP.Chemscore.Metal>
0.0000

> <Gold.Chemscore.Hbonds>
donor molecule, donor type, donor heavy atom, donor atom, acceptor molecule, acceptor atom, score
      L1  H    10    28       P1  7948  1.00
      L1  H    13    29       P1  7948  1.00
      P1  H  7989  7998       L1     5  0.90
      L1  C     6    25       P1  8028  0.98

> <Gold.PLP.Chemscore.Internal.Correction>
0.0055

> <Gold.Rescore>
     Score         DG    S(hbond)    S(metal)    S(lipo)     H(rot)  DE(clash)    DE(int)     intcor
     14.84     -17.58       2.34        0.00      71.97       1.61       0.23       2.51       ----

> <Gold.Chemscore.Fitness>
14.8425

> <Gold.Chemscore.DG>
-17.5835

> <Gold.Chemscore.ZeroCoef>
-5.4800

> <Gold.Chemscore.Hbond>
2.3392

> <Gold.Chemscore.Metal>
0.0000

> <Gold.Chemscore.Lipo>
71.9683

> <Gold.Chemscore.Internal_Hbond>
0.0000

> <Gold.Chemscore.DEClash>
0.2281

> <Gold.Chemscore.DEInternal>
2.5129

> <Gold.Chemscore.Rot>
1.6131

> <Gold.Chemscore.Internal.Correction>
   9.000000E+99

> <Gold.Chemscore.Hbonds>
donor molecule, donor type, donor heavy atom, donor atom, acceptor molecule, acceptor atom, score
      L1  H    10    28       P1  7948  0.96
      L1  H    13    29       P1  7948  0.96
      P1  H  7989  7998       L1     5  0.31

> <Gold.Chemscore.Hbond.Weighted>
-7.8128

> <Gold.Chemscore.Metal.Weighted>
-0.0000

> <Gold.Chemscore.Lipo.Weighted>
-8.4203

> <Gold.Chemscore.Internal_Hbond.Weighted>
0.0000

> <Gold.Chemscore.DEClash.Weighted>
0.2281

> <Gold.Chemscore.DEInternal.Weighted>
2.5129

> <Gold.Chemscore.Rot.Weighted>
4.1296

> <Gold.Chemscore.Internal.Correction.Weighted>
   9.000000E+99

> <Gold.Protein.RotatedTorsions>
[ 6907 6896 6895 6894 ] final  -80.70 input  -60.11 | X-H torsion
[ 7974 7965 7964 7962 ] final  118.20 input  175.53 | X-H torsion
[ 8008 7997 7996 7995 ] final  -24.16 input   59.86 | X-H torsion
[ 10167 10162 10161 10158 ] final  -77.71 input  -65.29 | X-H torsion
[ 10718 10713 10712 10709 ] final  178.69 input   66.30 | X-H torsion
[ 10763 10752 10751 10750 ] final   82.63 input  -60.55 | X-H torsion
[ 11005 11000 10999 10996 ] final -132.23 input  -57.11 | X-H torsion

> <Gold.Protein.ActiveResidues>
 VAL166  LYS551  ARG553  GLY616  TRP617  ASP618  TYR619  PRO620  LYS621  CYS622 
 ASP623  PHE694  ASN695  SER759  ASP760  ASP761  ALA762  ILE779  LEU786  VAL792 
 PHE793  MET794  SER795  GLU796  ALA797  LYS798  CYS799  TRP800  GLU811  SER814 

> <Gold.Protein.RotatedAtoms>
  150.6925  134.3930  159.5084 H   0  0  0  0  0  0  0  0  0  0  0  0  # atno 6907 bound_to 6896
  152.1716  134.8827  160.0543 H   0  0  0  0  0  0  0  0  0  0  0  0  # atno 6908 bound_to 6896
  151.9851  133.3736  159.4159 H   0  0  0  0  0  0  0  0  0  0  0  0  # atno 6909 bound_to 6896
  145.1581  139.3171  143.4531 H   0  0  0  0  0  0  0  0  0  0  0  0  # atno 7974 bound_to 7965
  154.4545  140.1961  156.0421 H   0  0  0  0  0  0  0  0  0  0  0  0  # atno 8008 bound_to 7997
  156.0717  140.3283  155.7556 H   0  0  0  0  0  0  0  0  0  0  0  0  # atno 8009 bound_to 7997
  155.5253  140.0573  157.2890 H   0  0  0  0  0  0  0  0  0  0  0  0  # atno 8010 bound_to 7997
  140.4746  143.2417  151.8152 H   0  0  0  0  0  0  0  0  0  0  0  0  # atno 10167 bound_to 10162
  156.8869  130.9834  151.3054 H   0  0  0  0  0  0  0  0  0  0  0  0  # atno 10718 bound_to 10713
  153.1219  135.4721  154.9209 H   0  0  0  0  0  0  0  0  0  0  0  0  # atno 10763 bound_to 10752
  154.7584  135.3124  154.8429 H   0  0  0  0  0  0  0  0  0  0  0  0  # atno 10764 bound_to 10752
  153.8991  135.6877  153.4810 H   0  0  0  0  0  0  0  0  0  0  0  0  # atno 10765 bound_to 10752
  140.9189  134.1471  157.4330 H   0  0  0  0  0  0  0  0  0  0  0  0  # atno 11005 bound_to 11000
  146.3486  140.1681  142.8590 LP  0  0  0  0  0  0  0  0  0  0  0  0  # atno 17320 bound_to 7965
  145.0360  140.8908  143.5081 LP  0  0  0  0  0  0  0  0  0  0  0  0  # atno 17321 bound_to 7965
  139.4823  144.4849  151.9259 LP  0  0  0  0  0  0  0  0  0  0  0  0  # atno 17342 bound_to 10162
  140.3934  144.2586  150.5898 LP  0  0  0  0  0  0  0  0  0  0  0  0  # atno 17343 bound_to 10162
  157.6107  130.8581  149.8947 LP  0  0  0  0  0  0  0  0  0  0  0  0  # atno 17370 bound_to 10713
  156.0649  130.3694  150.0901 LP  0  0  0  0  0  0  0  0  0  0  0  0  # atno 17371 bound_to 10713
  139.8771  134.9964  156.5791 LP  0  0  0  0  0  0  0  0  0  0  0  0  # atno 17394 bound_to 11000
  140.8014  133.8502  155.8730 LP  0  0  0  0  0  0  0  0  0  0  0  0  # atno 17395 bound_to 11000

$$$$
