AV-unprocessed.smi:1686|AV-procd|sdf|6764|dock6
  -GOLD-   22720 7523D 1   1.00000     0.00000
 Structure written by MMmdl.
 41 43  0  0  0  0  0  0  0  0  1 V2000
  149.1143  134.7749  155.1001 C   0  0  0  0  0  0  0  0  0  0  0  0
  149.8086  133.7056  155.8938 C   0  0  0  0  0  0  0  0  0  0  0  0
  150.2622  133.9878  157.1083 N   0  0  0  0  0  0  0  0  0  0  0  0
  150.8526  132.8142  157.5913 O   0  0  0  0  0  0  0  0  0  0  0  0
  150.7166  131.8765  156.6261 C   0  0  0  0  0  0  0  0  0  0  0  0
  151.3109  130.2745  156.8114 Cl  0  0  0  0  0  0  0  0  0  0  0  0
  150.0682  132.3534  155.5235 C   0  0  0  0  0  0  0  0  0  0  0  0
  149.7156  131.6494  154.2382 C   0  0  0  0  0  0  0  0  0  0  0  0
  148.1957  131.6034  154.0848 C   0  0  0  0  0  0  0  0  0  0  0  0
  147.4728  131.9679  155.0122 O   0  0  0  0  0  0  0  0  0  0  0  0
  147.7259  131.1684  152.9056 N   0  0  0  0  0  0  0  0  0  0  0  0
  146.3164  131.1120  152.5257 C   0  0  2  0  0  0  0  0  0  0  0  0
  145.9309  129.6672  152.1623 C   0  0  0  0  0  0  0  0  0  0  0  0
  146.0449  132.0906  151.3584 C   0  0  1  0  0  0  0  0  0  0  0  0
  144.6101  132.0289  150.7877 C   0  0  0  0  0  0  0  0  0  0  0  0
  144.1774  133.5071  150.7752 C   0  0  1  0  0  0  0  0  0  0  0  0
  143.8963  133.9636  152.2190 C   0  0  0  0  0  0  0  0  0  0  0  0
  145.3081  134.0539  152.8262 C   0  0  0  0  0  0  0  0  0  0  0  0
  146.2098  133.6018  151.6592 C   0  0  2  0  0  0  0  0  0  0  0  0
  145.4872  134.2228  150.4682 C   0  0  0  0  0  0  0  0  0  0  0  0
  149.2835  134.6453  154.0311 H   0  0  0  0  0  0  0  0  0  0  0  0
  149.4717  135.7695  155.3693 H   0  0  0  0  0  0  0  0  0  0  0  0
  148.0382  134.7499  155.2714 H   0  0  0  0  0  0  0  0  0  0  0  0
  150.1620  132.1470  153.3760 H   0  0  0  0  0  0  0  0  0  0  0  0
  150.0973  130.6280  154.2263 H   0  0  0  0  0  0  0  0  0  0  0  0
  148.3963  130.8905  152.2037 H   0  0  0  0  0  0  0  0  0  0  0  0
  145.7105  131.4158  153.3809 H   0  0  0  0  0  0  0  0  0  0  0  0
  144.8803  129.5959  151.8807 H   0  0  0  0  0  0  0  0  0  0  0  0
  146.0863  128.9922  153.0046 H   0  0  0  0  0  0  0  0  0  0  0  0
  146.5240  129.2958  151.3260 H   0  0  0  0  0  0  0  0  0  0  0  0
  146.7409  131.8474  150.5534 H   0  0  0  0  0  0  0  0  0  0  0  0
  144.6181  131.6140  149.7790 H   0  0  0  0  0  0  0  0  0  0  0  0
  143.9357  131.4184  151.3895 H   0  0  0  0  0  0  0  0  0  0  0  0
  143.3615  133.7182  150.0835 H   0  0  0  0  0  0  0  0  0  0  0  0
  143.4111  134.9403  152.2315 H   0  0  0  0  0  0  0  0  0  0  0  0
  143.2552  133.2647  152.7574 H   0  0  0  0  0  0  0  0  0  0  0  0
  145.5350  135.0843  153.1029 H   0  0  0  0  0  0  0  0  0  0  0  0
  145.4233  133.4471  153.7237 H   0  0  0  0  0  0  0  0  0  0  0  0
  147.2485  133.9145  151.7633 H   0  0  0  0  0  0  0  0  0  0  0  0
  145.9170  133.9452  149.5042 H   0  0  0  0  0  0  0  0  0  0  0  0
  145.4102  135.3102  150.5255 H   0  0  0  0  0  0  0  0  0  0  0  0
  1  2  1  0  0  0  0
  1 21  1  0  0  0  0
  1 22  1  0  0  0  0
  1 23  1  0  0  0  0
  2  7  1  0  0  0  0
  2  3  2  0  0  0  0
  3  4  1  0  0  0  0
  4  5  1  0  0  0  0
  5  6  1  0  0  0  0
  5  7  2  0  0  0  0
  7  8  1  0  0  0  0
  8  9  1  0  0  0  0
  8 24  1  0  0  0  0
  8 25  1  0  0  0  0
  9 10  2  0  0  0  0
  9 11  1  0  0  0  0
 11 12  1  0  0  0  0
 11 26  1  0  0  0  0
 12 13  1  0  0  0  0
 12 14  1  0  0  0  0
 12 27  1  0  0  0  0
 13 28  1  0  0  0  0
 13 29  1  0  0  0  0
 13 30  1  0  0  0  0
 14 19  1  0  0  0  0
 14 15  1  0  0  0  0
 14 31  1  0  0  0  0
 15 16  1  0  0  0  0
 15 32  1  0  0  0  0
 15 33  1  0  0  0  0
 16 20  1  0  0  0  0
 16 17  1  0  0  0  0
 16 34  1  0  0  0  0
 17 18  1  0  0  0  0
 17 35  1  0  0  0  0
 17 36  1  0  0  0  0
 18 19  1  0  0  0  0
 18 37  1  0  0  0  0
 18 38  1  0  0  0  0
 19 20  1  0  0  0  0
 19 39  1  0  0  0  0
 20 40  1  0  0  0  0
 20 41  1  0  0  0  0
M  END
> <s_m_source_file>
AV-unprocessed.smi

> <i_m_source_file_index>
1686

> <i_lp_mmshare_version>
43012

> <i_f3d_flags>
0

> <s_epik_input>
W0NIM11jMW5vYyhDbCljMVtDSDJdQyg9TylbTkhdW0NASF0oW0NIM10pW0NASF0oW0NIMl1bQ0BIXTIzKVtDQEhdKFtDSDJdMylbQ0gyXVtDSDJdMg==

> <s_epik_cmdline>
J2VwaWtfcHl0aG9uJywgJy1waCcsICc3LjAnLCAnLXRuJywgJzgnLCAnLW1hJywgJzIwMCcsICctbWV0YWxfYmluZGluZycsICctaW1hZScsICc8aW5maWxlLm1hZT4nLCAnLW9tYWUnLCAnPG91dGZpbGUubWFlPic=

> <r_lp_tautomer_probability>
1

> <r_epik_Ionization_Penalty>
2.01576e-08

> <r_epik_Ionization_Penalty_Charging>
0

> <r_epik_Ionization_Penalty_Neutral>
2.01576e-08

> <r_epik_State_Penalty>
-0

> <r_epik_Charging_Adjusted_Penalty>
0

> <i_epik_Tot_Q>
0

> <i_epik_Tot_abs_Q>
0

> <r_epik_Metal_State_Penalty>
-0

> <b_epik_Metal_Only>
0

> <s_lp_Force_Field>
OPLS_2005

> <r_lp_Energy>
45.5839

> <b_lp_Chiralities_Consistent>
1

> <s_lp_Variant>
AV-unprocessed.smi:1686-7

> <Gold.Version>
5.8.1

> <Gold.Id.Protein>
6NUR|6NUR_protein|mol2

> <Gold.PLP.Fitness>
39.4817

> <Gold.PLP.PLP>
-33.7337

> <Gold.PLP.part.hbond>
-2.6019

> <Gold.PLP.part.metal>
0.0000

> <Gold.PLP.part.buried>
-4.1948

> <Gold.PLP.part.nonpolar>
-26.4451

> <Gold.PLP.part.repulsive>
0.0066

> <Gold.PLP.ligand.clash>
0.0000

> <Gold.PLP.ligand.torsion>
0.1347

> <Gold.PLP.Chemscore.Hbond>
2.0000

> <Gold.PLP.Chemscore.CHOScore>
0.0000

> <Gold.PLP.Chemscore.Metal>
0.0000

> <Gold.Chemscore.Hbonds>
donor molecule, donor type, donor heavy atom, donor atom, acceptor molecule, acceptor atom, score
      L1  H    11    26       P1 10747  1.00
      P1  H  6896  6908       L1     4  1.00

> <Gold.PLP.Chemscore.Internal.Correction>
0.0174

> <Gold.Rescore>
     Score         DG    S(hbond)    S(metal)    S(lipo)     H(rot)  DE(clash)    DE(int)     intcor
     17.21     -17.43       1.59        0.00      88.69       1.46       0.05       0.17       ----

> <Gold.Chemscore.Fitness>
17.2081

> <Gold.Chemscore.DG>
-17.4321

> <Gold.Chemscore.ZeroCoef>
-5.4800

> <Gold.Chemscore.Hbond>
1.5944

> <Gold.Chemscore.Metal>
0.0000

> <Gold.Chemscore.Lipo>
88.6893

> <Gold.Chemscore.Internal_Hbond>
0.0000

> <Gold.Chemscore.DEClash>
0.0536

> <Gold.Chemscore.DEInternal>
0.1705

> <Gold.Chemscore.Rot>
1.4648

> <Gold.Chemscore.Internal.Correction>
   9.000000E+99

> <Gold.Chemscore.Hbonds>
donor molecule, donor type, donor heavy atom, donor atom, acceptor molecule, acceptor atom, score
      L1  H    11    26       P1 10747  0.89
      P1  H  6896  6908       L1     4  0.25

> <Gold.Chemscore.Hbond.Weighted>
-5.3255

> <Gold.Chemscore.Metal.Weighted>
-0.0000

> <Gold.Chemscore.Lipo.Weighted>
-10.3766

> <Gold.Chemscore.Internal_Hbond.Weighted>
0.0000

> <Gold.Chemscore.DEClash.Weighted>
0.0536

> <Gold.Chemscore.DEInternal.Weighted>
0.1705

> <Gold.Chemscore.Rot.Weighted>
3.7500

> <Gold.Chemscore.Internal.Correction.Weighted>
   9.000000E+99

> <Gold.Protein.RotatedTorsions>
[ 6907 6896 6895 6894 ] final   78.52 input  -60.11 | X-H torsion
[ 7974 7965 7964 7962 ] final  -74.89 input  175.53 | X-H torsion
[ 8008 7997 7996 7995 ] final  -46.81 input   59.86 | X-H torsion
[ 10167 10162 10161 10158 ] final   43.50 input  -65.29 | X-H torsion
[ 10718 10713 10712 10709 ] final  -79.43 input   66.30 | X-H torsion
[ 10763 10752 10751 10750 ] final  -82.11 input  -60.55 | X-H torsion
[ 11005 11000 10999 10996 ] final -163.83 input  -57.11 | X-H torsion

> <Gold.Protein.ActiveResidues>
 VAL166  LYS551  ARG553  GLY616  TRP617  ASP618  TYR619  PRO620  LYS621  CYS622 
 ASP623  PHE694  ASN695  SER759  ASP760  ASP761  ALA762  ILE779  LEU786  VAL792 
 PHE793  MET794  SER795  GLU796  ALA797  LYS798  CYS799  TRP800  GLU811  SER814 

> <Gold.Protein.RotatedAtoms>
  152.5163  134.3651  159.9298 H   0  0  0  0  0  0  0  0  0  0  0  0  # atno 6907 bound_to 6896
  151.3604  133.3885  159.2697 H   0  0  0  0  0  0  0  0  0  0  0  0  # atno 6908 bound_to 6896
  150.9656  134.9056  159.7815 H   0  0  0  0  0  0  0  0  0  0  0  0  # atno 6909 bound_to 6896
  145.6332  140.9332  143.1075 H   0  0  0  0  0  0  0  0  0  0  0  0  # atno 7974 bound_to 7965
  154.4010  140.1362  156.4073 H   0  0  0  0  0  0  0  0  0  0  0  0  # atno 8008 bound_to 7997
  155.7767  140.3482  155.5255 H   0  0  0  0  0  0  0  0  0  0  0  0  # atno 8009 bound_to 7997
  155.8713  140.0972  157.1538 H   0  0  0  0  0  0  0  0  0  0  0  0  # atno 8010 bound_to 7997
  140.3437  144.2437  150.6153 H   0  0  0  0  0  0  0  0  0  0  0  0  # atno 10167 bound_to 10162
  156.0093  130.4545  150.3647 H   0  0  0  0  0  0  0  0  0  0  0  0  # atno 10718 bound_to 10713
  154.5718  135.5602  153.7102 H   0  0  0  0  0  0  0  0  0  0  0  0  # atno 10763 bound_to 10752
  153.0051  135.6299  154.2104 H   0  0  0  0  0  0  0  0  0  0  0  0  # atno 10764 bound_to 10752
  154.2044  135.2876  155.2960 H   0  0  0  0  0  0  0  0  0  0  0  0  # atno 10765 bound_to 10752
  140.5937  134.5019  157.5196 H   0  0  0  0  0  0  0  0  0  0  0  0  # atno 11005 bound_to 11000
  144.7185  139.8111  143.7390 LP  0  0  0  0  0  0  0  0  0  0  0  0  # atno 17320 bound_to 7965
  146.1340  139.4381  143.0151 LP  0  0  0  0  0  0  0  0  0  0  0  0  # atno 17321 bound_to 7965
  140.5284  143.2249  151.8277 LP  0  0  0  0  0  0  0  0  0  0  0  0  # atno 17342 bound_to 10162
  139.4836  144.4750  151.9377 LP  0  0  0  0  0  0  0  0  0  0  0  0  # atno 17343 bound_to 10162
  157.1734  131.0374  151.2784 LP  0  0  0  0  0  0  0  0  0  0  0  0  # atno 17370 bound_to 10713
  157.4209  130.7437  149.6912 LP  0  0  0  0  0  0  0  0  0  0  0  0  # atno 17371 bound_to 10713
  139.9263  134.8050  156.1060 LP  0  0  0  0  0  0  0  0  0  0  0  0  # atno 17394 bound_to 11000
  141.0918  133.6711  156.2558 LP  0  0  0  0  0  0  0  0  0  0  0  0  # atno 17395 bound_to 11000

$$$$
