AV-unprocessed.smi:17|AV-procd|sdf|106|dock7
  -GOLD-   2262015263D 1   1.00000     0.00000
 Structure written by MMmdl.
 57 59  0  0  0  0  0  0  0  0  1 V2000
  147.6468  137.4851  163.3715 C   0  0  0  0  0  0  0  0  0  0  0  0
  147.3356  136.0158  163.0410 C   0  0  0  0  0  0  0  0  0  0  0  0
  147.8568  135.5854  161.7414 N   0  0  0  0  0  0  0  0  0  0  0  0
  147.6567  136.4566  160.7189 C   0  0  0  0  0  0  0  0  0  0  0  0
  146.3760  136.6765  160.3297 N   0  0  0  0  0  0  0  0  0  0  0  0
  146.1116  137.5089  159.3194 C   0  0  0  0  0  0  0  0  0  0  0  0
  146.9651  138.2115  158.5727 N   0  0  0  0  0  0  0  0  0  0  0  0
  148.2558  137.9936  158.9558 C   0  0  0  0  0  0  0  0  0  0  0  0
  148.6886  137.1333  160.0046 C   0  0  0  0  0  0  0  0  0  0  0  0
  150.0754  137.1602  160.0905 N   0  0  0  0  0  0  0  0  0  0  0  0
  150.4397  137.9875  159.1504 C   0  0  0  0  0  0  0  0  0  0  0  0
  149.4104  138.5490  158.4290 N   0  0  0  0  0  0  0  0  0  0  0  0
  149.5278  139.4994  157.3320 C   0  0  0  0  0  0  0  0  0  0  0  0
  150.9057  140.2117  157.2438 C   0  0  1  0  0  0  0  0  0  0  0  0
  151.1725  140.8002  155.8383 C   0  0  0  0  0  0  0  0  0  0  0  0
  151.1659  139.7867  154.8551 O   0  0  0  0  0  0  0  0  0  0  0  0
  151.0898  141.2892  158.3451 C   0  0  1  0  0  0  0  0  0  0  0  0
  152.5290  141.7165  158.5813 C   0  0  0  0  0  0  0  0  0  0  0  0
  152.3575  143.0377  159.3218 C   0  0  0  0  0  0  0  0  0  0  0  0
  151.1597  143.6099  158.8103 O   0  0  0  0  0  0  0  0  0  0  0  0
  150.4572  142.6493  158.0284 C   0  0  0  0  0  0  0  0  0  0  0  0
  147.7058  134.1574  161.4181 C   0  0  1  0  0  0  0  0  0  0  0  0
  148.0705  133.2307  162.5938 C   0  0  0  0  0  0  0  0  0  0  0  0
  146.3277  133.7925  160.8243 C   0  0  0  0  0  0  0  0  0  0  0  0
  146.2669  132.0323  160.2690 S   0  0  0  0  0  0  0  0  0  0  0  0
  144.5511  131.9023  159.6216 C   0  0  0  0  0  0  0  0  0  0  0  0
  147.2002  131.8509  159.1473 O   0  0  0  0  0  0  0  0  0  0  0  0
  146.3846  131.1692  161.4541 O   0  0  0  0  0  0  0  0  0  0  0  0
  147.3059  137.7314  164.3770 H   0  0  0  0  0  0  0  0  0  0  0  0
  147.1541  138.1725  162.6835 H   0  0  0  0  0  0  0  0  0  0  0  0
  148.7194  137.6771  163.3291 H   0  0  0  0  0  0  0  0  0  0  0  0
  147.7830  135.3898  163.8137 H   0  0  0  0  0  0  0  0  0  0  0  0
  146.2621  135.8392  163.0981 H   0  0  0  0  0  0  0  0  0  0  0  0
  145.0665  137.6280  159.0744 H   0  0  0  0  0  0  0  0  0  0  0  0
  151.4786  138.2128  158.9626 H   0  0  0  0  0  0  0  0  0  0  0  0
  149.3097  138.9739  156.4021 H   0  0  0  0  0  0  0  0  0  0  0  0
  148.7322  140.2377  157.4362 H   0  0  0  0  0  0  0  0  0  0  0  0
  151.6650  139.4477  157.4183 H   0  0  0  0  0  0  0  0  0  0  0  0
  150.4414  141.5665  155.5807 H   0  0  0  0  0  0  0  0  0  0  0  0
  152.1521  141.2743  155.7940 H   0  0  0  0  0  0  0  0  0  0  0  0
  151.4156  138.9712  155.2633 H   0  0  0  0  0  0  0  0  0  0  0  0
  150.6688  140.9335  159.2864 H   0  0  0  0  0  0  0  0  0  0  0  0
  153.1139  140.9964  159.1526 H   0  0  0  0  0  0  0  0  0  0  0  0
  153.0362  141.8866  157.6305 H   0  0  0  0  0  0  0  0  0  0  0  0
  152.2296  142.8609  160.3905 H   0  0  0  0  0  0  0  0  0  0  0  0
  153.2087  143.7052  159.1871 H   0  0  0  0  0  0  0  0  0  0  0  0
  150.5903  142.9031  156.9760 H   0  0  0  0  0  0  0  0  0  0  0  0
  149.3902  142.6764  158.2495 H   0  0  0  0  0  0  0  0  0  0  0  0
  148.4366  133.9454  160.6368 H   0  0  0  0  0  0  0  0  0  0  0  0
  148.0737  132.1872  162.2782 H   0  0  0  0  0  0  0  0  0  0  0  0
  147.3567  133.3183  163.4132 H   0  0  0  0  0  0  0  0  0  0  0  0
  149.0637  133.4507  162.9854 H   0  0  0  0  0  0  0  0  0  0  0  0
  145.5578  133.9012  161.5883 H   0  0  0  0  0  0  0  0  0  0  0  0
  146.0388  134.4406  159.9980 H   0  0  0  0  0  0  0  0  0  0  0  0
  144.3773  130.8889  159.2610 H   0  0  0  0  0  0  0  0  0  0  0  0
  144.4164  132.6067  158.8012 H   0  0  0  0  0  0  0  0  0  0  0  0
  143.8418  132.1289  160.4171 H   0  0  0  0  0  0  0  0  0  0  0  0
  1  2  1  0  0  0  0
  1 29  1  0  0  0  0
  1 30  1  0  0  0  0
  1 31  1  0  0  0  0
  2  3  1  0  0  0  0
  2 32  1  0  0  0  0
  2 33  1  0  0  0  0
  3  4  1  0  0  0  0
  3 22  1  0  0  0  0
  4  9  1  0  0  0  0
  4  5  2  0  0  0  0
  5  6  1  0  0  0  0
  6  7  2  0  0  0  0
  6 34  1  0  0  0  0
  7  8  1  0  0  0  0
  8 12  1  0  0  0  0
  8  9  2  0  0  0  0
  9 10  1  0  0  0  0
 10 11  2  0  0  0  0
 11 12  1  0  0  0  0
 11 35  1  0  0  0  0
 12 13  1  0  0  0  0
 13 14  1  0  0  0  0
 13 36  1  0  0  0  0
 13 37  1  0  0  0  0
 14 15  1  0  0  0  0
 14 17  1  0  0  0  0
 14 38  1  0  0  0  0
 15 16  1  0  0  0  0
 15 39  1  0  0  0  0
 15 40  1  0  0  0  0
 16 41  1  0  0  0  0
 17 21  1  0  0  0  0
 17 18  1  0  0  0  0
 17 42  1  0  0  0  0
 18 19  1  0  0  0  0
 18 43  1  0  0  0  0
 18 44  1  0  0  0  0
 19 20  1  0  0  0  0
 19 45  1  0  0  0  0
 19 46  1  0  0  0  0
 20 21  1  0  0  0  0
 21 47  1  0  0  0  0
 21 48  1  0  0  0  0
 22 23  1  0  0  0  0
 22 24  1  0  0  0  0
 22 49  1  0  0  0  0
 23 50  1  0  0  0  0
 23 51  1  0  0  0  0
 23 52  1  0  0  0  0
 24 25  1  0  0  0  0
 24 53  1  0  0  0  0
 24 54  1  0  0  0  0
 25 26  1  0  0  0  0
 25 27  2  0  0  0  0
 25 28  2  0  0  0  0
 26 55  1  0  0  0  0
 26 56  1  0  0  0  0
 26 57  1  0  0  0  0
M  END
> <s_m_source_file>
AV-unprocessed.smi

> <i_m_source_file_index>
17

> <i_lp_mmshare_version>
43012

> <i_f3d_flags>
0

> <s_epik_input>
W0NIM11TKD1PKSg9TylbQ0gyXVtDQEBIXShbQ0gzXSlOKFtDSDJdW0NIM10pYyhuW2NIXW4xKWMoYzEyKW5bY0hdbjJbQ0gyXVtDQEhdKFtDSDJdW09IXSlbQ0BASF0zW0NIMl1bQ0gyXU9bQ0gyXTM=

> <s_epik_cmdline>
J2VwaWtfcHl0aG9uJywgJy1waCcsICc3LjAnLCAnLXRuJywgJzgnLCAnLW1hJywgJzIwMCcsICctbWV0YWxfYmluZGluZycsICctaW1hZScsICc8aW5maWxlLm1hZT4nLCAnLW9tYWUnLCAnPG91dGZpbGUubWFlPic=

> <r_lp_tautomer_probability>
1

> <r_epik_Ionization_Penalty>
0.00119955

> <r_epik_Ionization_Penalty_Charging>
0

> <r_epik_Ionization_Penalty_Neutral>
0.00119955

> <r_epik_State_Penalty>
0.000665399

> <r_epik_Charging_Adjusted_Penalty>
0.000665399

> <i_epik_Tot_Q>
0

> <i_epik_Tot_abs_Q>
0

> <r_epik_Metal_State_Penalty>
-0

> <b_epik_Metal_Only>
0

> <s_lp_Force_Field>
OPLS_2005

> <r_lp_Energy>
32.9267

> <b_lp_Chiralities_Consistent>
1

> <s_lp_Variant>
AV-unprocessed.smi:17-8

> <Gold.Version>
5.8.1

> <Gold.Id.Protein>
6NUR|6NUR_protein|mol2

> <Gold.PLP.Fitness>
45.6332

> <Gold.PLP.PLP>
-40.6518

> <Gold.PLP.part.hbond>
-2.6597

> <Gold.PLP.part.metal>
0.0000

> <Gold.PLP.part.buried>
-6.9048

> <Gold.PLP.part.nonpolar>
-31.5361

> <Gold.PLP.part.repulsive>
0.0104

> <Gold.PLP.ligand.clash>
0.0000

> <Gold.PLP.ligand.torsion>
1.2013

> <Gold.PLP.Chemscore.Hbond>
2.0000

> <Gold.PLP.Chemscore.CHOScore>
0.0000

> <Gold.PLP.Chemscore.Metal>
0.0000

> <Gold.Chemscore.Hbonds>
donor molecule, donor type, donor heavy atom, donor atom, acceptor molecule, acceptor atom, score
      P1  H  6896  6908       L1    10  0.24
      P1  H  7989  7998       L1    16  0.75

> <Gold.PLP.Chemscore.Internal.Correction>
1.3840

> <Gold.Rescore>
     Score         DG    S(hbond)    S(metal)    S(lipo)     H(rot)  DE(clash)    DE(int)     intcor
      8.73     -12.26       1.89        0.00      86.96       3.79       0.00       3.53       ----

> <Gold.Chemscore.Fitness>
8.7327

> <Gold.Chemscore.DG>
-12.2647

> <Gold.Chemscore.ZeroCoef>
-5.4800

> <Gold.Chemscore.Hbond>
1.8897

> <Gold.Chemscore.Metal>
0.0000

> <Gold.Chemscore.Lipo>
86.9595

> <Gold.Chemscore.Internal_Hbond>
0.0000

> <Gold.Chemscore.DEClash>
0.0048

> <Gold.Chemscore.DEInternal>
3.5272

> <Gold.Chemscore.Rot>
3.7894

> <Gold.Chemscore.Internal.Correction>
   9.000000E+99

> <Gold.Chemscore.Hbonds>
donor molecule, donor type, donor heavy atom, donor atom, acceptor molecule, acceptor atom, score
      P1  H  6896  6908       L1    10  0.19
      P1  H  7989  7998       L1    16  0.09

> <Gold.Chemscore.Hbond.Weighted>
-6.3115

> <Gold.Chemscore.Metal.Weighted>
-0.0000

> <Gold.Chemscore.Lipo.Weighted>
-10.1743

> <Gold.Chemscore.Internal_Hbond.Weighted>
0.0000

> <Gold.Chemscore.DEClash.Weighted>
0.0048

> <Gold.Chemscore.DEInternal.Weighted>
3.5272

> <Gold.Chemscore.Rot.Weighted>
9.7010

> <Gold.Chemscore.Internal.Correction.Weighted>
   9.000000E+99

> <Gold.Protein.RotatedTorsions>
[ 6907 6896 6895 6894 ] final -143.89 input  -60.11 | X-H torsion
[ 7974 7965 7964 7962 ] final -129.35 input  175.53 | X-H torsion
[ 8008 7997 7996 7995 ] final  126.01 input   59.86 | X-H torsion
[ 10167 10162 10161 10158 ] final   56.52 input  -65.29 | X-H torsion
[ 10718 10713 10712 10709 ] final -155.19 input   66.30 | X-H torsion
[ 10763 10752 10751 10750 ] final  -68.31 input  -60.55 | X-H torsion
[ 11005 11000 10999 10996 ] final   -4.26 input  -57.11 | X-H torsion

> <Gold.Protein.ActiveResidues>
 VAL166  LYS551  ARG553  GLY616  TRP617  ASP618  TYR619  PRO620  LYS621  CYS622 
 ASP623  PHE694  ASN695  SER759  ASP760  ASP761  ALA762  ILE779  LEU786  VAL792 
 PHE793  MET794  SER795  GLU796  ALA797  LYS798  CYS799  TRP800  GLU811  SER814 

> <Gold.Protein.RotatedAtoms>
  151.1066  133.5203  159.2607 H   0  0  0  0  0  0  0  0  0  0  0  0  # atno 6907 bound_to 6896
  151.2014  135.0443  159.8883 H   0  0  0  0  0  0  0  0  0  0  0  0  # atno 6908 bound_to 6896
  152.5447  134.0894  159.8323 H   0  0  0  0  0  0  0  0  0  0  0  0  # atno 6909 bound_to 6896
  144.9580  140.7417  143.4746 H   0  0  0  0  0  0  0  0  0  0  0  0  # atno 7974 bound_to 7965
  156.2851  140.2703  156.2041 H   0  0  0  0  0  0  0  0  0  0  0  0  # atno 8008 bound_to 7997
  155.0331  140.0386  157.2499 H   0  0  0  0  0  0  0  0  0  0  0  0  # atno 8009 bound_to 7997
  154.7337  140.2711  155.6438 H   0  0  0  0  0  0  0  0  0  0  0  0  # atno 8010 bound_to 7997
  140.2079  144.3920  150.6501 H   0  0  0  0  0  0  0  0  0  0  0  0  # atno 10167 bound_to 10162
  156.5094  130.8428  151.2640 H   0  0  0  0  0  0  0  0  0  0  0  0  # atno 10718 bound_to 10713
  154.3871  135.6061  153.5823 H   0  0  0  0  0  0  0  0  0  0  0  0  # atno 10763 bound_to 10752
  152.9787  135.5875  154.4341 H   0  0  0  0  0  0  0  0  0  0  0  0  # atno 10764 bound_to 10752
  154.4120  135.2844  155.2009 H   0  0  0  0  0  0  0  0  0  0  0  0  # atno 10765 bound_to 10752
  140.6783  133.9175  155.8539 H   0  0  0  0  0  0  0  0  0  0  0  0  # atno 11005 bound_to 11000
  145.2742  139.1943  143.4825 LP  0  0  0  0  0  0  0  0  0  0  0  0  # atno 17320 bound_to 7965
  146.3344  140.2694  142.8605 LP  0  0  0  0  0  0  0  0  0  0  0  0  # atno 17321 bound_to 7965
  140.6344  143.2192  151.6426 LP  0  0  0  0  0  0  0  0  0  0  0  0  # atno 17342 bound_to 10162
  139.5191  144.3263  152.0866 LP  0  0  0  0  0  0  0  0  0  0  0  0  # atno 17343 bound_to 10162
  157.7452  130.9954  150.2744 LP  0  0  0  0  0  0  0  0  0  0  0  0  # atno 17370 bound_to 10713
  156.3255  130.3792  149.7537 LP  0  0  0  0  0  0  0  0  0  0  0  0  # atno 17371 bound_to 10713
  141.0337  134.0719  157.3984 LP  0  0  0  0  0  0  0  0  0  0  0  0  # atno 17394 bound_to 11000
  139.8959  135.0143  156.7027 LP  0  0  0  0  0  0  0  0  0  0  0  0  # atno 17395 bound_to 11000

$$$$
