AV-unprocessed.smi:3157|AV-procd|sdf|12039|dock10
  -GOLD-   2272017463D 1   1.00000     0.00000
 Structure written by MMmdl.
 40 41  0  0  0  0  0  0  0  0  2 V2000
  151.6858  140.3700  156.4746 C   0  0  0  0  0  0  0  0  0  0  0  0
  150.5501  141.2608  155.9277 C   0  0  2  0  0  0  0  0  0  0  0  0
  150.1360  142.2432  156.9555 N   0  3  0  0  0  0  0  0  0  0  0  0
  151.2400  142.9548  157.6334 C   0  0  0  0  0  0  0  0  0  0  0  0
  151.3320  142.5494  159.1131 C   0  0  0  0  0  0  0  0  0  0  0  0
  151.7674  143.6925  160.0318 C   0  0  0  0  0  0  0  0  0  0  0  0
  152.2274  142.9958  161.3139 C   0  0  0  0  0  0  0  0  0  0  0  0
  152.7522  141.6201  160.8784 C   0  0  0  0  0  0  0  0  0  0  0  0
  152.3694  141.4564  159.4006 C   0  0  0  0  0  0  0  0  0  0  0  0
  149.3154  140.4455  155.4577 C   0  0  1  0  0  0  0  0  0  0  0  0
  148.7896  139.4919  156.5483 C   0  0  0  0  0  0  0  0  0  0  0  0
  148.2356  141.3003  154.9799 N   0  0  0  0  0  0  0  0  0  0  0  0
  147.8581  141.5512  153.6767 C   0  0  0  0  0  0  0  0  0  0  0  0
  146.8017  142.4153  153.7163 C   0  0  0  0  0  0  0  0  0  0  0  0
  146.5979  142.6370  155.1065 C   0  0  0  0  0  0  0  0  0  0  0  0
  147.4567  141.9697  155.8600 N   0  0  0  0  0  0  0  0  0  0  0  0
  152.0710  139.6914  155.7135 H   0  0  0  0  0  0  0  0  0  0  0  0
  151.3419  139.7648  157.3139 H   0  0  0  0  0  0  0  0  0  0  0  0
  152.5348  140.9599  156.8187 H   0  0  0  0  0  0  0  0  0  0  0  0
  150.9344  141.8105  155.0665 H   0  0  0  0  0  0  0  0  0  0  0  0
  149.5699  142.9435  156.4979 H   0  0  0  0  0  0  0  0  0  0  0  0
  152.1875  142.7563  157.1322 H   0  0  0  0  0  0  0  0  0  0  0  0
  151.0595  144.0280  157.5586 H   0  0  0  0  0  0  0  0  0  0  0  0
  150.3551  142.2012  159.4532 H   0  0  0  0  0  0  0  0  0  0  0  0
  152.6061  144.2318  159.5883 H   0  0  0  0  0  0  0  0  0  0  0  0
  150.9691  144.4127  160.2136 H   0  0  0  0  0  0  0  0  0  0  0  0
  152.9787  143.5772  161.8492 H   0  0  0  0  0  0  0  0  0  0  0  0
  151.3770  142.8648  161.9843 H   0  0  0  0  0  0  0  0  0  0  0  0
  153.8334  141.5502  161.0043 H   0  0  0  0  0  0  0  0  0  0  0  0
  152.3034  140.8349  161.4879 H   0  0  0  0  0  0  0  0  0  0  0  0
  151.9902  140.4577  159.1817 H   0  0  0  0  0  0  0  0  0  0  0  0
  153.2555  141.6106  158.7832 H   0  0  0  0  0  0  0  0  0  0  0  0
  149.6227  139.8337  154.6078 H   0  0  0  0  0  0  0  0  0  0  0  0
  149.5412  138.7572  156.8373 H   0  0  0  0  0  0  0  0  0  0  0  0
  147.9175  138.9398  156.1964 H   0  0  0  0  0  0  0  0  0  0  0  0
  148.4958  140.0350  157.4474 H   0  0  0  0  0  0  0  0  0  0  0  0
  148.3677  141.1009  152.8376 H   0  0  0  0  0  0  0  0  0  0  0  0
  146.2564  142.8260  152.8794 H   0  0  0  0  0  0  0  0  0  0  0  0
  145.8574  143.2593  155.5870 H   0  0  0  0  0  0  0  0  0  0  0  0
  149.5669  141.7731  157.6448 H   0  0  0  0  0  0  0  0  0  0  0  0
  1  2  1  0  0  0  0
  1 17  1  0  0  0  0
  1 18  1  0  0  0  0
  1 19  1  0  0  0  0
  2  3  1  0  0  0  0
  2 10  1  0  0  0  0
  2 20  1  0  0  0  0
  3  4  1  0  0  0  0
  3 21  1  0  0  0  0
  3 40  1  0  0  0  0
  4  5  1  0  0  0  0
  4 22  1  0  0  0  0
  4 23  1  0  0  0  0
  5  9  1  0  0  0  0
  5  6  1  0  0  0  0
  5 24  1  0  0  0  0
  6  7  1  0  0  0  0
  6 25  1  0  0  0  0
  6 26  1  0  0  0  0
  7  8  1  0  0  0  0
  7 27  1  0  0  0  0
  7 28  1  0  0  0  0
  8  9  1  0  0  0  0
  8 29  1  0  0  0  0
  8 30  1  0  0  0  0
  9 31  1  0  0  0  0
  9 32  1  0  0  0  0
 10 11  1  0  0  0  0
 10 12  1  0  0  0  0
 10 33  1  0  0  0  0
 11 34  1  0  0  0  0
 11 35  1  0  0  0  0
 11 36  1  0  0  0  0
 12 16  1  0  0  0  0
 12 13  1  0  0  0  0
 13 14  2  0  0  0  0
 13 37  1  0  0  0  0
 14 15  1  0  0  0  0
 14 38  1  0  0  0  0
 15 16  2  0  0  0  0
 15 39  1  0  0  0  0
M  CHG  1   3   1
M  END
> <s_m_source_file>
AV-unprocessed.smi

> <i_m_source_file_index>
3157

> <i_lp_mmshare_version>
43012

> <i_f3d_flags>
0

> <s_epik_input>
bjFbY0hdW2NIXVtjSF1uMVtDQEBIXShbQ0gzXSlbQ0BIXShbQ0gzXSlbTkhdW0NIMl1bQ0hdMltDSDJdW0NIMl1bQ0gyXVtDSDJdMg==

> <s_epik_cmdline>
J2VwaWtfcHl0aG9uJywgJy1waCcsICc3LjAnLCAnLXRuJywgJzgnLCAnLW1hJywgJzIwMCcsICctbWV0YWxfYmluZGluZycsICctaW1hZScsICc8aW5maWxlLm1hZT4nLCAnLW9tYWUnLCAnPG91dGZpbGUubWFlPic=

> <r_lp_tautomer_probability>
1

> <r_epik_Ionization_Penalty>
0.00132192

> <r_epik_Ionization_Penalty_Charging>
0.0013111

> <r_epik_Ionization_Penalty_Neutral>
1.08112e-05

> <r_epik_State_Penalty>
-0

> <r_epik_Charging_Adjusted_Penalty>
0.0013111

> <i_epik_Tot_Q>
1

> <i_epik_Tot_abs_Q>
1

> <r_epik_Metal_State_Penalty>
-0

> <b_epik_Metal_Only>
0

> <s_lp_Force_Field>
OPLS_2005

> <r_lp_Energy>
31.1874

> <b_lp_Chiralities_Consistent>
1

> <s_lp_Variant>
AV-unprocessed.smi:3157-3

> <Gold.Version>
5.8.1

> <Gold.Id.Protein>
6NUR|6NUR_protein|mol2

> <Gold.PLP.Fitness>
44.5892

> <Gold.PLP.PLP>
-38.0140

> <Gold.PLP.part.hbond>
-1.0000

> <Gold.PLP.part.metal>
0.0000

> <Gold.PLP.part.buried>
-4.9014

> <Gold.PLP.part.nonpolar>
-31.8252

> <Gold.PLP.part.repulsive>
0.6807

> <Gold.PLP.ligand.clash>
0.0000

> <Gold.PLP.ligand.torsion>
1.2571

> <Gold.PLP.Chemscore.Hbond>
2.0000

> <Gold.PLP.Chemscore.CHOScore>
1.0000

> <Gold.PLP.Chemscore.Metal>
0.0000

> <Gold.Chemscore.Hbonds>
donor molecule, donor type, donor heavy atom, donor atom, acceptor molecule, acceptor atom, score
      L1  H     3    21       P1  8028  1.76
      L1  C    13    37       P1  7957  1.00

> <Gold.PLP.Chemscore.Internal.Correction>
0.0893

> <Gold.Rescore>
     Score         DG    S(hbond)    S(metal)    S(lipo)     H(rot)  DE(clash)    DE(int)     intcor
     15.70     -17.60       0.99        0.00     108.25       1.50       0.15       1.75       ----

> <Gold.Chemscore.Fitness>
15.7020

> <Gold.Chemscore.DG>
-17.6025

> <Gold.Chemscore.ZeroCoef>
-5.4800

> <Gold.Chemscore.Hbond>
0.9909

> <Gold.Chemscore.Metal>
0.0000

> <Gold.Chemscore.Lipo>
108.2474

> <Gold.Chemscore.Internal_Hbond>
0.0000

> <Gold.Chemscore.DEClash>
0.1546

> <Gold.Chemscore.DEInternal>
1.7459

> <Gold.Chemscore.Rot>
1.5047

> <Gold.Chemscore.Internal.Correction>
   9.000000E+99

> <Gold.Chemscore.Hbonds>
donor molecule, donor type, donor heavy atom, donor atom, acceptor molecule, acceptor atom, score
      L1  H     3    21       P1  8028  0.85

> <Gold.Chemscore.Hbond.Weighted>
-3.3095

> <Gold.Chemscore.Metal.Weighted>
-0.0000

> <Gold.Chemscore.Lipo.Weighted>
-12.6650

> <Gold.Chemscore.Internal_Hbond.Weighted>
0.0000

> <Gold.Chemscore.DEClash.Weighted>
0.1546

> <Gold.Chemscore.DEInternal.Weighted>
1.7459

> <Gold.Chemscore.Rot.Weighted>
3.8520

> <Gold.Chemscore.Internal.Correction.Weighted>
   9.000000E+99

> <Gold.Protein.RotatedTorsions>
[ 6907 6896 6895 6894 ] final  -82.45 input  -60.11 | X-H torsion
[ 7974 7965 7964 7962 ] final  153.82 input  175.53 | X-H torsion
[ 8008 7997 7996 7995 ] final   89.38 input   59.86 | X-H torsion
[ 10167 10162 10161 10158 ] final -140.58 input  -65.29 | X-H torsion
[ 10718 10713 10712 10709 ] final   91.71 input   66.30 | X-H torsion
[ 10763 10752 10751 10750 ] final  -31.74 input  -60.55 | X-H torsion
[ 11005 11000 10999 10996 ] final  -92.01 input  -57.11 | X-H torsion

> <Gold.Protein.ActiveResidues>
 VAL166  LYS551  ARG553  GLY616  TRP617  ASP618  TYR619  PRO620  LYS621  CYS622 
 ASP623  PHE694  ASN695  SER759  ASP760  ASP761  ALA762  ILE779  LEU786  VAL792 
 PHE793  MET794  SER795  GLU796  ALA797  LYS798  CYS799  TRP800  GLU811  SER814 

> <Gold.Protein.RotatedAtoms>
  150.6897  134.3662  159.4971 H   0  0  0  0  0  0  0  0  0  0  0  0  # atno 6907 bound_to 6896
  152.1484  134.9005  160.0559 H   0  0  0  0  0  0  0  0  0  0  0  0  # atno 6908 bound_to 6896
  152.0111  133.3827  159.4257 H   0  0  0  0  0  0  0  0  0  0  0  0  # atno 6909 bound_to 6896
  144.8129  139.6852  143.6134 H   0  0  0  0  0  0  0  0  0  0  0  0  # atno 7974 bound_to 7965
  155.9993  140.3361  155.6829 H   0  0  0  0  0  0  0  0  0  0  0  0  # atno 8008 bound_to 7997
  155.6313  140.0685  157.2666 H   0  0  0  0  0  0  0  0  0  0  0  0  # atno 8009 bound_to 7997
  154.4244  140.1759  156.1462 H   0  0  0  0  0  0  0  0  0  0  0  0  # atno 8010 bound_to 7997
  139.8268  143.7500  152.2666 H   0  0  0  0  0  0  0  0  0  0  0  0  # atno 10167 bound_to 10162
  157.6960  131.0417  150.3771 H   0  0  0  0  0  0  0  0  0  0  0  0  # atno 10718 bound_to 10713
  153.8023  135.6889  153.4853 H   0  0  0  0  0  0  0  0  0  0  0  0  # atno 10763 bound_to 10752
  153.1680  135.4553  154.9862 H   0  0  0  0  0  0  0  0  0  0  0  0  # atno 10764 bound_to 10752
  154.8001  135.3334  154.7511 H   0  0  0  0  0  0  0  0  0  0  0  0  # atno 10765 bound_to 10752
  141.1532  133.7793  156.9960 H   0  0  0  0  0  0  0  0  0  0  0  0  # atno 11005 bound_to 11000
  146.2429  139.6039  142.9479 LP  0  0  0  0  0  0  0  0  0  0  0  0  # atno 17320 bound_to 7965
  145.5282  141.0428  143.2398 LP  0  0  0  0  0  0  0  0  0  0  0  0  # atno 17321 bound_to 7965
  139.7695  144.7481  151.0244 LP  0  0  0  0  0  0  0  0  0  0  0  0  # atno 17342 bound_to 10162
  140.7809  143.4660  151.0211 LP  0  0  0  0  0  0  0  0  0  0  0  0  # atno 17343 bound_to 10162
  156.4189  130.3949  149.6839 LP  0  0  0  0  0  0  0  0  0  0  0  0  # atno 17370 bound_to 10713
  156.4096  130.7715  151.2728 LP  0  0  0  0  0  0  0  0  0  0  0  0  # atno 17371 bound_to 10713
  140.0971  134.9558  157.1866 LP  0  0  0  0  0  0  0  0  0  0  0  0  # atno 17394 bound_to 11000
  140.3368  134.2749  155.7218 LP  0  0  0  0  0  0  0  0  0  0  0  0  # atno 17395 bound_to 11000

$$$$
