AV-unprocessed.smi:2061|AV-procd|sdf|8388|dock1
  -GOLD-   2272011 73D 1   1.00000     0.00000
 Structure written by MMmdl.
 45 46  0  0  0  0  0  0  0  0  3 V2000
  143.8394  143.7131  162.4990 C   0  0  0  0  0  0  0  0  0  0  0  0
  144.6242  143.8699  161.2417 C   0  0  0  0  0  0  0  0  0  0  0  0
  145.6905  143.1928  160.7205 C   0  0  0  0  0  0  0  0  0  0  0  0
  145.9342  143.8700  159.4960 C   0  0  0  0  0  0  0  0  0  0  0  0
  146.9850  143.4554  158.6354 N   0  0  0  0  0  0  0  0  0  0  0  0
  147.3729  142.2058  158.3220 C   0  0  0  0  0  0  0  0  0  0  0  0
  146.7699  141.2298  158.7847 O   0  0  0  0  0  0  0  0  0  0  0  0
  148.4494  142.1914  157.4877 N   0  5  0  0  0  0  0  0  0  0  0  0
  149.3910  141.0776  157.3579 C   0  0  0  0  0  0  0  0  0  0  0  0
  150.7075  141.5314  156.6666 C   0  0  2  0  0  0  0  0  0  0  0  0
  151.4522  140.3999  155.9144 C   0  0  0  0  0  0  0  0  0  0  0  0
  151.5817  142.2634  157.6352 N   0  3  1  0  0  0  0  0  0  0  0  0
  151.0506  143.5445  158.1779 C   0  0  0  0  0  0  0  0  0  0  0  0
  152.1324  144.2542  159.0115 C   0  0  1  0  0  0  0  0  0  0  0  0
  151.6174  145.5512  159.6445 C   0  0  0  0  0  0  0  0  0  0  0  0
  152.5500  143.3851  160.0594 O   0  0  0  0  0  0  0  0  0  0  0  0
  153.1299  142.1790  159.5736 C   0  0  1  0  0  0  0  0  0  0  0  0
  153.6209  141.3650  160.7757 C   0  0  0  0  0  0  0  0  0  0  0  0
  152.0866  141.4111  158.7398 C   0  0  0  0  0  0  0  0  0  0  0  0
  145.0906  144.8707  159.2895 N   0  0  0  0  0  0  0  0  0  0  0  0
  144.2480  144.8763  160.4072 O   0  0  0  0  0  0  0  0  0  0  0  0
  143.9903  142.7234  162.9305 H   0  0  0  0  0  0  0  0  0  0  0  0
  142.7735  143.8396  162.3097 H   0  0  0  0  0  0  0  0  0  0  0  0
  144.1430  144.4551  163.2376 H   0  0  0  0  0  0  0  0  0  0  0  0
  146.2113  142.3489  161.1476 H   0  0  0  0  0  0  0  0  0  0  0  0
  147.5184  144.1987  158.2093 H   0  0  0  0  0  0  0  0  0  0  0  0
  149.6340  140.6487  158.3316 H   0  0  0  0  0  0  0  0  0  0  0  0
  148.9570  140.2556  156.7881 H   0  0  0  0  0  0  0  0  0  0  0  0
  150.4136  142.2616  155.9111 H   0  0  0  0  0  0  0  0  0  0  0  0
  150.8474  139.9852  155.1060 H   0  0  0  0  0  0  0  0  0  0  0  0
  151.7318  139.5709  156.5670 H   0  0  0  0  0  0  0  0  0  0  0  0
  152.3657  140.7765  155.4544 H   0  0  0  0  0  0  0  0  0  0  0  0
  150.7276  144.1974  157.3665 H   0  0  0  0  0  0  0  0  0  0  0  0
  150.1781  143.3535  158.8044 H   0  0  0  0  0  0  0  0  0  0  0  0
  152.9883  144.4935  158.3778 H   0  0  0  0  0  0  0  0  0  0  0  0
  151.2896  146.2570  158.8809 H   0  0  0  0  0  0  0  0  0  0  0  0
  152.3986  146.0356  160.2310 H   0  0  0  0  0  0  0  0  0  0  0  0
  150.7738  145.3594  160.3082 H   0  0  0  0  0  0  0  0  0  0  0  0
  153.9899  142.4238  158.9476 H   0  0  0  0  0  0  0  0  0  0  0  0
  154.0886  140.4341  160.4541 H   0  0  0  0  0  0  0  0  0  0  0  0
  152.7980  141.1128  161.4452 H   0  0  0  0  0  0  0  0  0  0  0  0
  154.3584  141.9251  161.3510 H   0  0  0  0  0  0  0  0  0  0  0  0
  151.2524  141.0933  159.3674 H   0  0  0  0  0  0  0  0  0  0  0  0
  152.5463  140.5090  158.3342 H   0  0  0  0  0  0  0  0  0  0  0  0
  152.4013  142.5066  157.0970 H   0  0  0  0  0  0  0  0  0  0  0  0
  1  2  1  0  0  0  0
  1 22  1  0  0  0  0
  1 23  1  0  0  0  0
  1 24  1  0  0  0  0
  2 21  1  0  0  0  0
  2  3  2  0  0  0  0
  3  4  1  0  0  0  0
  3 25  1  0  0  0  0
  4  5  1  0  0  0  0
  4 20  2  0  0  0  0
  5  6  1  0  0  0  0
  5 26  1  0  0  0  0
  6  7  2  0  0  0  0
  6  8  1  0  0  0  0
  8  9  1  0  0  0  0
  9 10  1  0  0  0  0
  9 27  1  0  0  0  0
  9 28  1  0  0  0  0
 10 11  1  0  0  0  0
 10 12  1  0  0  0  0
 10 29  1  0  0  0  0
 11 30  1  0  0  0  0
 11 31  1  0  0  0  0
 11 32  1  0  0  0  0
 12 19  1  0  0  0  0
 12 13  1  0  0  0  0
 12 45  1  0  0  0  0
 13 14  1  0  0  0  0
 13 33  1  0  0  0  0
 13 34  1  0  0  0  0
 14 15  1  0  0  0  0
 14 16  1  0  0  0  0
 14 35  1  0  0  0  0
 15 36  1  0  0  0  0
 15 37  1  0  0  0  0
 15 38  1  0  0  0  0
 16 17  1  0  0  0  0
 17 18  1  0  0  0  0
 17 19  1  0  0  0  0
 17 39  1  0  0  0  0
 18 40  1  0  0  0  0
 18 41  1  0  0  0  0
 18 42  1  0  0  0  0
 19 43  1  0  0  0  0
 19 44  1  0  0  0  0
 20 21  1  0  0  0  0
M  CHG  1   8  -1
M  CHG  1  12   1
M  END
> <s_m_source_file>
AV-unprocessed.smi

> <i_m_source_file_index>
2061

> <i_lp_mmshare_version>
43012

> <i_f3d_flags>
0

> <s_epik_input>
W0NIM11jMVtjSF1jKG5vMSlbTkhdQyg9TylbTkhdW0NIMl1bQ0BIXShbQ0gzXSlOMltDSDJdW0NAQEhdKFtDSDNdKU9bQ0BASF0oW0NIM10pW0NIMl0y

> <s_epik_cmdline>
J2VwaWtfcHl0aG9uJywgJy1waCcsICc3LjAnLCAnLXRuJywgJzgnLCAnLW1hJywgJzIwMCcsICctbWV0YWxfYmluZGluZycsICctaW1hZScsICc8aW5maWxlLm1hZT4nLCAnLW9tYWUnLCAnPG91dGZpbGUubWFlPic=

> <r_epik_Ionization_Penalty>
6.8073

> <r_epik_Ionization_Penalty_Charging>
6.80729

> <r_epik_Ionization_Penalty_Neutral>
5.65391e-06

> <r_epik_State_Penalty>
7.47323

> <r_epik_Charging_Adjusted_Penalty>
14.2805

> <i_epik_Tot_Q>
0

> <i_epik_Tot_abs_Q>
2

> <r_epik_Metal_State_Penalty>
3.40035

> <b_epik_Metal_Only>
1

> <s_lp_Force_Field>
OPLS_2005

> <r_lp_Energy>
16.5553

> <b_lp_Chiralities_Consistent>
1

> <s_lp_Variant>
AV-unprocessed.smi:2061-29

> <Gold.Version>
5.8.1

> <Gold.Id.Protein>
6NUR|6NUR_protein|mol2

> <Gold.PLP.Fitness>
44.8290

> <Gold.PLP.PLP>
-41.8784

> <Gold.PLP.part.hbond>
-2.0000

> <Gold.PLP.part.metal>
0.0000

> <Gold.PLP.part.buried>
-5.7168

> <Gold.PLP.part.nonpolar>
-34.7205

> <Gold.PLP.part.repulsive>
1.0634

> <Gold.PLP.ligand.clash>
0.0000

> <Gold.PLP.ligand.torsion>
0.8415

> <Gold.PLP.Chemscore.Hbond>
1.4800

> <Gold.PLP.Chemscore.CHOScore>
0.0000

> <Gold.PLP.Chemscore.Metal>
0.0000

> <Gold.Chemscore.Hbonds>
donor molecule, donor type, donor heavy atom, donor atom, acceptor molecule, acceptor atom, score
      L1  H     5    26       P1  8029  1.00
      P1  H  6934  6946       L1     7  0.43

> <Gold.PLP.Chemscore.Internal.Correction>
0.1936

> <Gold.Rescore>
     Score         DG    S(hbond)    S(metal)    S(lipo)     H(rot)  DE(clash)    DE(int)     intcor
     14.58     -18.07       1.38        0.00     102.34       1.56       1.32       2.17       ----

> <Gold.Chemscore.Fitness>
14.5752

> <Gold.Chemscore.DG>
-18.0673

> <Gold.Chemscore.ZeroCoef>
-5.4800

> <Gold.Chemscore.Hbond>
1.3756

> <Gold.Chemscore.Metal>
0.0000

> <Gold.Chemscore.Lipo>
102.3376

> <Gold.Chemscore.Internal_Hbond>
0.0000

> <Gold.Chemscore.DEClash>
1.3223

> <Gold.Chemscore.DEInternal>
2.1699

> <Gold.Chemscore.Rot>
1.5550

> <Gold.Chemscore.Internal.Correction>
   9.000000E+99

> <Gold.Chemscore.Hbonds>
donor molecule, donor type, donor heavy atom, donor atom, acceptor molecule, acceptor atom, score
      L1  H     5    26       P1  8029  0.48
      P1  H  6934  6946       L1     7  0.40

> <Gold.Chemscore.Hbond.Weighted>
-4.5947

> <Gold.Chemscore.Metal.Weighted>
-0.0000

> <Gold.Chemscore.Lipo.Weighted>
-11.9735

> <Gold.Chemscore.Internal_Hbond.Weighted>
0.0000

> <Gold.Chemscore.DEClash.Weighted>
1.3223

> <Gold.Chemscore.DEInternal.Weighted>
2.1699

> <Gold.Chemscore.Rot.Weighted>
3.9809

> <Gold.Chemscore.Internal.Correction.Weighted>
   9.000000E+99

> <Gold.Protein.RotatedTorsions>
[ 6907 6896 6895 6894 ] final  -93.52 input  -60.11 | X-H torsion
[ 7974 7965 7964 7962 ] final -146.65 input  175.53 | X-H torsion
[ 8008 7997 7996 7995 ] final  -12.31 input   59.86 | X-H torsion
[ 10167 10162 10161 10158 ] final  125.24 input  -65.29 | X-H torsion
[ 10718 10713 10712 10709 ] final -164.78 input   66.30 | X-H torsion
[ 10763 10752 10751 10750 ] final   40.05 input  -60.55 | X-H torsion
[ 11005 11000 10999 10996 ] final -163.05 input  -57.11 | X-H torsion

> <Gold.Protein.ActiveResidues>
 VAL166  LYS551  ARG553  GLY616  TRP617  ASP618  TYR619  PRO620  LYS621  CYS622 
 ASP623  PHE694  ASN695  SER759  ASP760  ASP761  ALA762  ILE779  LEU786  VAL792 
 PHE793  MET794  SER795  GLU796  ALA797  LYS798  CYS799  TRP800  GLU811  SER814 

> <Gold.Protein.RotatedAtoms>
  150.6924  134.1955  159.4301 H   0  0  0  0  0  0  0  0  0  0  0  0  # atno 6907 bound_to 6896
  151.9923  134.9970  160.0571 H   0  0  0  0  0  0  0  0  0  0  0  0  # atno 6908 bound_to 6896
  152.1656  133.4575  159.4919 H   0  0  0  0  0  0  0  0  0  0  0  0  # atno 6909 bound_to 6896
  144.8145  140.5428  143.5620 H   0  0  0  0  0  0  0  0  0  0  0  0  # atno 7974 bound_to 7965
  154.5388  140.2279  155.8676 H   0  0  0  0  0  0  0  0  0  0  0  0  # atno 8008 bound_to 7997
  156.1838  140.3094  155.9161 H   0  0  0  0  0  0  0  0  0  0  0  0  # atno 8009 bound_to 7997
  155.3300  140.0445  157.3033 H   0  0  0  0  0  0  0  0  0  0  0  0  # atno 8010 bound_to 7997
  139.5696  144.6931  151.3814 H   0  0  0  0  0  0  0  0  0  0  0  0  # atno 10167 bound_to 10162
  156.6439  130.8980  151.3001 H   0  0  0  0  0  0  0  0  0  0  0  0  # atno 10718 bound_to 10713
  152.9948  135.6203  154.2563 H   0  0  0  0  0  0  0  0  0  0  0  0  # atno 10763 bound_to 10752
  154.2300  135.2792  155.2895 H   0  0  0  0  0  0  0  0  0  0  0  0  # atno 10764 bound_to 10752
  154.5457  135.5748  153.6936 H   0  0  0  0  0  0  0  0  0  0  0  0  # atno 10765 bound_to 10752
  140.6024  134.4934  157.5206 H   0  0  0  0  0  0  0  0  0  0  0  0  # atno 11005 bound_to 11000
  145.5246  139.1476  143.3533 LP  0  0  0  0  0  0  0  0  0  0  0  0  # atno 17320 bound_to 7965
  146.2447  140.5387  142.8919 LP  0  0  0  0  0  0  0  0  0  0  0  0  # atno 17321 bound_to 7965
  140.6981  143.7700  150.7358 LP  0  0  0  0  0  0  0  0  0  0  0  0  # atno 17342 bound_to 10162
  140.1202  143.4618  152.2317 LP  0  0  0  0  0  0  0  0  0  0  0  0  # atno 17343 bound_to 10162
  157.7162  130.9500  150.1265 LP  0  0  0  0  0  0  0  0  0  0  0  0  # atno 17370 bound_to 10713
  156.2137  130.3668  149.8639 LP  0  0  0  0  0  0  0  0  0  0  0  0  # atno 17371 bound_to 10713
  139.9227  134.8117  156.1163 LP  0  0  0  0  0  0  0  0  0  0  0  0  # atno 17394 bound_to 11000
  141.0863  133.6733  156.2444 LP  0  0  0  0  0  0  0  0  0  0  0  0  # atno 17395 bound_to 11000

$$$$
