AV-unprocessed.smi:1205|AV-procd|sdf|5043|dock8
  -GOLD-   22720 4 63D 1   1.00000     0.00000
 Structure written by MMmdl.
 49 50  0  0  0  0  0  0  0  0  2 V2000
  150.5029  142.0759  156.0725 C   0  0  0  0  0  0  0  0  0  0  0  0
  150.2556  140.7561  155.4034 C   0  0  0  0  0  0  0  0  0  0  0  0
  149.0105  140.2039  154.9835 C   0  0  0  0  0  0  0  0  0  0  0  0
  149.3804  139.0014  154.4458 C   0  0  0  0  0  0  0  0  0  0  0  0
  148.6010  138.0438  153.8763 N   0  0  0  0  0  0  0  0  0  0  0  0
  147.3724  137.6362  154.2388 C   0  0  0  0  0  0  0  0  0  0  0  0
  146.7237  138.0777  155.1876 O   0  0  0  0  0  0  0  0  0  0  0  0
  146.9214  136.6708  153.4239 N   0  0  0  0  0  0  0  0  0  0  0  0
  145.6339  135.9916  153.5485 C   0  0  0  0  0  0  0  0  0  0  0  0
  144.8753  135.8934  152.2040 C   0  0  2  0  0  0  0  0  0  0  0  0
  143.4132  136.3872  152.2798 C   0  0  0  0  0  0  0  0  0  0  0  0
  144.9883  134.5147  151.6429 N   0  3  1  0  0  0  0  0  0  0  0  0
  144.3572  134.3166  150.3091 C   0  0  0  0  0  0  0  0  0  0  0  0
  144.3038  132.8240  149.9497 C   0  0  0  0  0  0  0  0  0  0  0  0
  145.7064  132.1998  149.9925 C   0  0  0  0  0  0  0  0  0  0  0  0
  146.3968  132.4625  151.3444 C   0  0  2  0  0  0  0  0  0  0  0  0
  145.8228  131.6007  152.4828 C   0  0  0  0  0  0  0  0  0  0  0  0
  146.3718  133.9677  151.6844 C   0  0  0  0  0  0  0  0  0  0  0  0
  150.7477  138.8705  154.5471 N   0  0  0  0  0  0  0  0  0  0  0  0
  151.6047  137.7825  154.1183 C   0  0  0  0  0  0  0  0  0  0  0  0
  151.2847  139.9588  155.1394 N   0  0  0  0  0  0  0  0  0  0  0  0
  149.5659  142.5853  156.2984 H   0  0  0  0  0  0  0  0  0  0  0  0
  151.0928  142.7343  155.4345 H   0  0  0  0  0  0  0  0  0  0  0  0
  151.0437  141.9462  157.0105 H   0  0  0  0  0  0  0  0  0  0  0  0
  148.0252  140.6364  155.0705 H   0  0  0  0  0  0  0  0  0  0  0  0
  149.0106  137.5739  153.0823 H   0  0  0  0  0  0  0  0  0  0  0  0
  147.5214  136.3711  152.6689 H   0  0  0  0  0  0  0  0  0  0  0  0
  145.8315  134.9884  153.9276 H   0  0  0  0  0  0  0  0  0  0  0  0
  145.0263  136.4825  154.3094 H   0  0  0  0  0  0  0  0  0  0  0  0
  145.4004  136.5599  151.5182 H   0  0  0  0  0  0  0  0  0  0  0  0
  143.3678  137.4502  152.5150 H   0  0  0  0  0  0  0  0  0  0  0  0
  142.8483  135.8612  153.0496 H   0  0  0  0  0  0  0  0  0  0  0  0
  142.8925  136.2552  151.3318 H   0  0  0  0  0  0  0  0  0  0  0  0
  143.3454  134.7196  150.2985 H   0  0  0  0  0  0  0  0  0  0  0  0
  144.9203  134.8543  149.5451 H   0  0  0  0  0  0  0  0  0  0  0  0
  143.6399  132.3015  150.6389 H   0  0  0  0  0  0  0  0  0  0  0  0
  143.8730  132.6967  148.9561 H   0  0  0  0  0  0  0  0  0  0  0  0
  145.6520  131.1297  149.7901 H   0  0  0  0  0  0  0  0  0  0  0  0
  146.3104  132.6303  149.1924 H   0  0  0  0  0  0  0  0  0  0  0  0
  147.4419  132.1695  151.2361 H   0  0  0  0  0  0  0  0  0  0  0  0
  144.7806  131.8418  152.6919 H   0  0  0  0  0  0  0  0  0  0  0  0
  146.3854  131.7475  153.4053 H   0  0  0  0  0  0  0  0  0  0  0  0
  145.8743  130.5401  152.2352 H   0  0  0  0  0  0  0  0  0  0  0  0
  146.9982  134.5135  150.9776 H   0  0  0  0  0  0  0  0  0  0  0  0
  146.8099  134.1220  152.6715 H   0  0  0  0  0  0  0  0  0  0  0  0
  151.1752  136.8295  154.4286 H   0  0  0  0  0  0  0  0  0  0  0  0
  152.5973  137.8801  154.5605 H   0  0  0  0  0  0  0  0  0  0  0  0
  151.6964  137.7965  153.0321 H   0  0  0  0  0  0  0  0  0  0  0  0
  144.4641  133.9337  152.2815 H   0  0  0  0  0  0  0  0  0  0  0  0
  1  2  1  0  0  0  0
  1 22  1  0  0  0  0
  1 23  1  0  0  0  0
  1 24  1  0  0  0  0
  2 21  2  0  0  0  0
  2  3  1  0  0  0  0
  3  4  2  0  0  0  0
  3 25  1  0  0  0  0
  4  5  1  0  0  0  0
  4 19  1  0  0  0  0
  5  6  1  0  0  0  0
  5 26  1  0  0  0  0
  6  7  2  0  0  0  0
  6  8  1  0  0  0  0
  8  9  1  0  0  0  0
  8 27  1  0  0  0  0
  9 10  1  0  0  0  0
  9 28  1  0  0  0  0
  9 29  1  0  0  0  0
 10 11  1  0  0  0  0
 10 12  1  0  0  0  0
 10 30  1  0  0  0  0
 11 31  1  0  0  0  0
 11 32  1  0  0  0  0
 11 33  1  0  0  0  0
 12 18  1  0  0  0  0
 12 13  1  0  0  0  0
 12 49  1  0  0  0  0
 13 14  1  0  0  0  0
 13 34  1  0  0  0  0
 13 35  1  0  0  0  0
 14 15  1  0  0  0  0
 14 36  1  0  0  0  0
 14 37  1  0  0  0  0
 15 16  1  0  0  0  0
 15 38  1  0  0  0  0
 15 39  1  0  0  0  0
 16 17  1  0  0  0  0
 16 18  1  0  0  0  0
 16 40  1  0  0  0  0
 17 41  1  0  0  0  0
 17 42  1  0  0  0  0
 17 43  1  0  0  0  0
 18 44  1  0  0  0  0
 18 45  1  0  0  0  0
 19 20  1  0  0  0  0
 19 21  1  0  0  0  0
 20 46  1  0  0  0  0
 20 47  1  0  0  0  0
 20 48  1  0  0  0  0
M  CHG  1  12   1
M  END
> <s_m_source_file>
AV-unprocessed.smi

> <i_m_source_file_index>
1205

> <i_lp_mmshare_version>
43012

> <i_f3d_flags>
0

> <s_epik_input>
W0NIM11jMVtjSF1jKG4objEpW0NIM10pW05IXUMoPU8pW05IXVtDSDJdW0NASF0oW0NIM10pTjJbQ0gyXVtDSDJdW0NIMl1bQ0BASF0oW0NIM10pW0NIMl0y

> <s_epik_cmdline>
J2VwaWtfcHl0aG9uJywgJy1waCcsICc3LjAnLCAnLXRuJywgJzgnLCAnLW1hJywgJzIwMCcsICctbWV0YWxfYmluZGluZycsICctaW1hZScsICc8aW5maWxlLm1hZT4nLCAnLW9tYWUnLCAnPG91dGZpbGUubWFlPic=

> <r_lp_tautomer_probability>
1

> <r_epik_Ionization_Penalty>
0.0020309

> <r_epik_Ionization_Penalty_Charging>
0.00195276

> <r_epik_Ionization_Penalty_Neutral>
7.81448e-05

> <r_epik_State_Penalty>
0.00133177

> <r_epik_Charging_Adjusted_Penalty>
0.00328452

> <i_epik_Tot_Q>
1

> <i_epik_Tot_abs_Q>
1

> <r_epik_Metal_State_Penalty>
-0

> <b_epik_Metal_Only>
0

> <s_lp_Force_Field>
OPLS_2005

> <r_lp_Energy>
25.0457

> <b_lp_Chiralities_Consistent>
1

> <s_lp_Variant>
AV-unprocessed.smi:1205-5

> <Gold.Version>
5.8.1

> <Gold.Id.Protein>
6NUR|6NUR_protein|mol2

> <Gold.PLP.Fitness>
42.4633

> <Gold.PLP.PLP>
-37.1477

> <Gold.PLP.part.hbond>
-3.0000

> <Gold.PLP.part.metal>
0.0000

> <Gold.PLP.part.buried>
-3.1287

> <Gold.PLP.part.nonpolar>
-31.1564

> <Gold.PLP.part.repulsive>
0.0835

> <Gold.PLP.ligand.clash>
0.0000

> <Gold.PLP.ligand.torsion>
1.0776

> <Gold.PLP.Chemscore.Hbond>
2.4470

> <Gold.PLP.Chemscore.CHOScore>
0.0000

> <Gold.PLP.Chemscore.Metal>
0.0000

> <Gold.Chemscore.Hbonds>
donor molecule, donor type, donor heavy atom, donor atom, acceptor molecule, acceptor atom, score
      L1  H     5    26       P1  7948  1.00
      L1  H     8    27       P1  7948  1.00
      P1  H  7989  7998       L1    21  0.45

> <Gold.PLP.Chemscore.Internal.Correction>
0.1299

> <Gold.Rescore>
     Score         DG    S(hbond)    S(metal)    S(lipo)     H(rot)  DE(clash)    DE(int)     intcor
     17.17     -18.39       1.92        0.00      87.71       1.47       0.11       1.11       ----

> <Gold.Chemscore.Fitness>
17.1718

> <Gold.Chemscore.DG>
-18.3944

> <Gold.Chemscore.ZeroCoef>
-5.4800

> <Gold.Chemscore.Hbond>
1.9175

> <Gold.Chemscore.Metal>
0.0000

> <Gold.Chemscore.Lipo>
87.7128

> <Gold.Chemscore.Internal_Hbond>
0.0000

> <Gold.Chemscore.DEClash>
0.1116

> <Gold.Chemscore.DEInternal>
1.1111

> <Gold.Chemscore.Rot>
1.4658

> <Gold.Chemscore.Internal.Correction>
   9.000000E+99

> <Gold.Chemscore.Hbonds>
donor molecule, donor type, donor heavy atom, donor atom, acceptor molecule, acceptor atom, score
      L1  H     5    26       P1  7948  0.95
      L1  H     8    27       P1  7948  0.98

> <Gold.Chemscore.Hbond.Weighted>
-6.4046

> <Gold.Chemscore.Metal.Weighted>
-0.0000

> <Gold.Chemscore.Lipo.Weighted>
-10.2624

> <Gold.Chemscore.Internal_Hbond.Weighted>
0.0000

> <Gold.Chemscore.DEClash.Weighted>
0.1116

> <Gold.Chemscore.DEInternal.Weighted>
1.1111

> <Gold.Chemscore.Rot.Weighted>
3.7526

> <Gold.Chemscore.Internal.Correction.Weighted>
   9.000000E+99

> <Gold.Protein.RotatedTorsions>
[ 6907 6896 6895 6894 ] final  177.20 input  -60.11 | X-H torsion
[ 7974 7965 7964 7962 ] final -159.30 input  175.53 | X-H torsion
[ 8008 7997 7996 7995 ] final  -21.00 input   59.86 | X-H torsion
[ 10167 10162 10161 10158 ] final -179.70 input  -65.29 | X-H torsion
[ 10718 10713 10712 10709 ] final -159.81 input   66.30 | X-H torsion
[ 10763 10752 10751 10750 ] final -154.46 input  -60.55 | X-H torsion
[ 11005 11000 10999 10996 ] final  -94.24 input  -57.11 | X-H torsion

> <Gold.Protein.ActiveResidues>
 VAL166  LYS551  ARG553  GLY616  TRP617  ASP618  TYR619  PRO620  LYS621  CYS622 
 ASP623  PHE694  ASN695  SER759  ASP760  ASP761  ALA762  ILE779  LEU786  VAL792 
 PHE793  MET794  SER795  GLU796  ALA797  LYS798  CYS799  TRP800  GLU811  SER814 

> <Gold.Protein.RotatedAtoms>
  151.7078  133.3312  159.3282 H   0  0  0  0  0  0  0  0  0  0  0  0  # atno 6907 bound_to 6896
  150.7707  134.6559  159.6322 H   0  0  0  0  0  0  0  0  0  0  0  0  # atno 6908 bound_to 6896
  152.3730  134.6708  160.0221 H   0  0  0  0  0  0  0  0  0  0  0  0  # atno 6909 bound_to 6896
  144.7470  140.3704  143.6077 H   0  0  0  0  0  0  0  0  0  0  0  0  # atno 7974 bound_to 7965
  154.4734  140.2047  155.9939 H   0  0  0  0  0  0  0  0  0  0  0  0  # atno 8008 bound_to 7997
  156.1048  140.3238  155.7962 H   0  0  0  0  0  0  0  0  0  0  0  0  # atno 8009 bound_to 7997
  155.4736  140.0533  157.2967 H   0  0  0  0  0  0  0  0  0  0  0  0  # atno 8010 bound_to 7997
  139.5374  144.2458  152.0824 H   0  0  0  0  0  0  0  0  0  0  0  0  # atno 10167 bound_to 10162
  156.5734  130.8698  151.2844 H   0  0  0  0  0  0  0  0  0  0  0  0  # atno 10718 bound_to 10713
  154.7857  135.3189  154.7891 H   0  0  0  0  0  0  0  0  0  0  0  0  # atno 10763 bound_to 10752
  153.8592  135.6855  153.4789 H   0  0  0  0  0  0  0  0  0  0  0  0  # atno 10764 bound_to 10752
  153.1508  135.4700  154.9572 H   0  0  0  0  0  0  0  0  0  0  0  0  # atno 10765 bound_to 10752
  141.1476  133.7942  157.0270 H   0  0  0  0  0  0  0  0  0  0  0  0  # atno 11005 bound_to 11000
  145.7084  139.1678  143.2553 LP  0  0  0  0  0  0  0  0  0  0  0  0  # atno 17320 bound_to 7965
  146.1365  140.7115  142.9387 LP  0  0  0  0  0  0  0  0  0  0  0  0  # atno 17321 bound_to 7965
  140.1931  144.4732  150.6469 LP  0  0  0  0  0  0  0  0  0  0  0  0  # atno 17342 bound_to 10162
  140.6588  143.2245  151.5905 LP  0  0  0  0  0  0  0  0  0  0  0  0  # atno 17343 bound_to 10162
  157.7343  130.9744  150.2022 LP  0  0  0  0  0  0  0  0  0  0  0  0  # atno 17370 bound_to 10713
  156.2695  130.3720  149.8046 LP  0  0  0  0  0  0  0  0  0  0  0  0  # atno 17371 bound_to 10713
  140.0778  134.9665  157.1575 LP  0  0  0  0  0  0  0  0  0  0  0  0  # atno 17394 bound_to 11000
  140.3619  134.2485  155.7186 LP  0  0  0  0  0  0  0  0  0  0  0  0  # atno 17395 bound_to 11000

$$$$
