AV-unprocessed.smi:517|AV-procd|sdf|2788|dock3
  -GOLD-   2262023263D 1   1.00000     0.00000
 Structure written by MMmdl.
 35 36  0  0  0  0  0  0  0  0  1 V2000
  151.7301  138.1807  154.4266 C   0  0  0  0  0  0  0  0  0  0  0  0
  150.3181  138.7704  154.4466 C   0  0  0  0  0  0  0  0  0  0  0  0
  150.4133  140.1614  154.6956 O   0  0  0  0  0  0  0  0  0  0  0  0
  150.4082  140.4806  156.0772 C   0  0  0  0  0  0  0  0  0  0  0  0
  151.3348  141.6795  156.3260 C   0  0  0  0  0  0  0  0  0  0  0  0
  151.7289  141.7865  157.7240 N   0  0  0  0  0  0  0  0  0  0  0  0
  152.1850  140.8093  158.5495 C   0  0  0  0  0  0  0  0  0  0  0  0
  152.3404  139.3833  158.0959 C   0  0  2  0  0  0  0  0  0  0  0  0
  151.4926  138.4209  158.9385 C   0  0  0  0  0  0  0  0  0  0  0  0
  153.6834  138.9452  158.1467 O   0  0  0  0  0  0  0  0  0  0  0  0
  152.4544  141.1919  159.8002 N   0  0  0  0  0  0  0  0  0  0  0  0
  152.1689  142.5423  159.7770 C   0  0  0  0  0  0  0  0  0  0  0  0
  152.2612  143.5181  160.7951 C   0  0  0  0  0  0  0  0  0  0  0  0
  151.9132  144.8592  160.5321 C   0  0  0  0  0  0  0  0  0  0  0  0
  151.4674  145.2426  159.2507 C   0  0  0  0  0  0  0  0  0  0  0  0
  151.3644  144.2850  158.2235 C   0  0  0  0  0  0  0  0  0  0  0  0
  151.7140  142.9478  158.4910 C   0  0  0  0  0  0  0  0  0  0  0  0
  151.7019  137.1059  154.2479 H   0  0  0  0  0  0  0  0  0  0  0  0
  152.2377  138.3500  155.3765 H   0  0  0  0  0  0  0  0  0  0  0  0
  152.3323  138.6356  153.6399 H   0  0  0  0  0  0  0  0  0  0  0  0
  149.8249  138.5899  153.4904 H   0  0  0  0  0  0  0  0  0  0  0  0
  149.7229  138.2891  155.2239 H   0  0  0  0  0  0  0  0  0  0  0  0
  149.3944  140.7240  156.3983 H   0  0  0  0  0  0  0  0  0  0  0  0
  150.7384  139.6207  156.6618 H   0  0  0  0  0  0  0  0  0  0  0  0
  152.2356  141.5831  155.7190 H   0  0  0  0  0  0  0  0  0  0  0  0
  150.8580  142.6070  156.0097 H   0  0  0  0  0  0  0  0  0  0  0  0
  152.0396  139.3031  157.0519 H   0  0  0  0  0  0  0  0  0  0  0  0
  150.4357  138.6843  158.8899 H   0  0  0  0  0  0  0  0  0  0  0  0
  151.7915  138.4430  159.9872 H   0  0  0  0  0  0  0  0  0  0  0  0
  151.5923  137.3943  158.5848 H   0  0  0  0  0  0  0  0  0  0  0  0
  153.7316  138.0849  157.7588 H   0  0  0  0  0  0  0  0  0  0  0  0
  152.6020  143.2343  161.7797 H   0  0  0  0  0  0  0  0  0  0  0  0
  151.9898  145.5975  161.3168 H   0  0  0  0  0  0  0  0  0  0  0  0
  151.2049  146.2722  159.0564 H   0  0  0  0  0  0  0  0  0  0  0  0
  151.0261  144.5758  157.2401 H   0  0  0  0  0  0  0  0  0  0  0  0
  1  2  1  0  0  0  0
  1 18  1  0  0  0  0
  1 19  1  0  0  0  0
  1 20  1  0  0  0  0
  2  3  1  0  0  0  0
  2 21  1  0  0  0  0
  2 22  1  0  0  0  0
  3  4  1  0  0  0  0
  4  5  1  0  0  0  0
  4 23  1  0  0  0  0
  4 24  1  0  0  0  0
  5  6  1  0  0  0  0
  5 25  1  0  0  0  0
  5 26  1  0  0  0  0
  6 17  1  0  0  0  0
  6  7  1  0  0  0  0
  7  8  1  0  0  0  0
  7 11  2  0  0  0  0
  8  9  1  0  0  0  0
  8 10  1  0  0  0  0
  8 27  1  0  0  0  0
  9 28  1  0  0  0  0
  9 29  1  0  0  0  0
  9 30  1  0  0  0  0
 10 31  1  0  0  0  0
 11 12  1  0  0  0  0
 12 17  2  0  0  0  0
 12 13  1  0  0  0  0
 13 14  2  0  0  0  0
 13 32  1  0  0  0  0
 14 15  1  0  0  0  0
 14 33  1  0  0  0  0
 15 16  2  0  0  0  0
 15 34  1  0  0  0  0
 16 17  1  0  0  0  0
 16 35  1  0  0  0  0
M  END
> <s_m_source_file>
AV-unprocessed.smi

> <i_m_source_file_index>
517

> <i_lp_mmshare_version>
43012

> <i_f3d_flags>
0

> <s_epik_input>
W0NIM11bQ0gyXU9bQ0gyXVtDSDJdbihjKG4xKVtDQEhdKFtDSDNdKVtPSF0pYyhjMTIpW2NIXVtjSF1bY0hdW2NIXTI=

> <s_epik_cmdline>
J2VwaWtfcHl0aG9uJywgJy1waCcsICc3LjAnLCAnLXRuJywgJzgnLCAnLW1hJywgJzIwMCcsICctbWV0YWxfYmluZGluZycsICctaW1hZScsICc8aW5maWxlLm1hZT4nLCAnLW9tYWUnLCAnPG91dGZpbGUubWFlPic=

> <r_epik_Ionization_Penalty>
0.0517997

> <r_epik_Ionization_Penalty_Charging>
0

> <r_epik_Ionization_Penalty_Neutral>
0.0517997

> <r_epik_State_Penalty>
0.0443961

> <r_epik_Charging_Adjusted_Penalty>
0.0443961

> <i_epik_Tot_Q>
0

> <i_epik_Tot_abs_Q>
0

> <r_epik_Metal_State_Penalty>
4.60999e-05

> <b_epik_Metal_Only>
0

> <s_lp_Force_Field>
OPLS_2005

> <r_lp_Energy>
5.78947

> <b_lp_Chiralities_Consistent>
1

> <s_lp_Variant>
AV-unprocessed.smi:517-1

> <Gold.Version>
5.8.1

> <Gold.Id.Protein>
6NUR|6NUR_protein|mol2

> <Gold.PLP.Fitness>
45.4608

> <Gold.PLP.PLP>
-40.7617

> <Gold.PLP.part.hbond>
-2.0000

> <Gold.PLP.part.metal>
0.0000

> <Gold.PLP.part.buried>
-7.3224

> <Gold.PLP.part.nonpolar>
-31.3480

> <Gold.PLP.part.repulsive>
0.0779

> <Gold.PLP.ligand.clash>
0.0000

> <Gold.PLP.ligand.torsion>
0.6646

> <Gold.PLP.Chemscore.Hbond>
2.0000

> <Gold.PLP.Chemscore.CHOScore>
0.0000

> <Gold.PLP.Chemscore.Metal>
0.0000

> <Gold.Chemscore.Hbonds>
donor molecule, donor type, donor heavy atom, donor atom, acceptor molecule, acceptor atom, score
      P1  H  7989  7998       L1     3  1.00
      P1  H  7997  8009       L1    10  1.00

> <Gold.PLP.Chemscore.Internal.Correction>
0.0283

> <Gold.Rescore>
     Score         DG    S(hbond)    S(metal)    S(lipo)     H(rot)  DE(clash)    DE(int)     intcor
     16.58     -18.34       1.70        0.00     107.41       2.11       0.07       1.69       ----

> <Gold.Chemscore.Fitness>
16.5753

> <Gold.Chemscore.DG>
-18.3408

> <Gold.Chemscore.ZeroCoef>
-5.4800

> <Gold.Chemscore.Hbond>
1.7017

> <Gold.Chemscore.Metal>
0.0000

> <Gold.Chemscore.Lipo>
107.4082

> <Gold.Chemscore.Internal_Hbond>
0.0000

> <Gold.Chemscore.DEClash>
0.0727

> <Gold.Chemscore.DEInternal>
1.6928

> <Gold.Chemscore.Rot>
2.1052

> <Gold.Chemscore.Internal.Correction>
   9.000000E+99

> <Gold.Chemscore.Hbonds>
donor molecule, donor type, donor heavy atom, donor atom, acceptor molecule, acceptor atom, score
      P1  H  7989  7998       L1     3  0.64
      P1  H  7997  8009       L1    10  0.41

> <Gold.Chemscore.Hbond.Weighted>
-5.6835

> <Gold.Chemscore.Metal.Weighted>
-0.0000

> <Gold.Chemscore.Lipo.Weighted>
-12.5668

> <Gold.Chemscore.Internal_Hbond.Weighted>
0.0000

> <Gold.Chemscore.DEClash.Weighted>
0.0727

> <Gold.Chemscore.DEInternal.Weighted>
1.6928

> <Gold.Chemscore.Rot.Weighted>
5.3894

> <Gold.Chemscore.Internal.Correction.Weighted>
   9.000000E+99

> <Gold.Protein.RotatedTorsions>
[ 6907 6896 6895 6894 ] final  109.86 input  -60.11 | X-H torsion
[ 7974 7965 7964 7962 ] final -126.05 input  175.53 | X-H torsion
[ 8008 7997 7996 7995 ] final  145.77 input   59.86 | X-H torsion
[ 10167 10162 10161 10158 ] final  117.10 input  -65.29 | X-H torsion
[ 10718 10713 10712 10709 ] final  152.39 input   66.30 | X-H torsion
[ 10763 10752 10751 10750 ] final -143.35 input  -60.55 | X-H torsion
[ 11005 11000 10999 10996 ] final -160.55 input  -57.11 | X-H torsion

> <Gold.Protein.ActiveResidues>
 VAL166  LYS551  ARG553  GLY616  TRP617  ASP618  TYR619  PRO620  LYS621  CYS622 
 ASP623  PHE694  ASN695  SER759  ASP760  ASP761  ALA762  ILE779  LEU786  VAL792 
 PHE793  MET794  SER795  GLU796  ALA797  LYS798  CYS799  TRP800  GLU811  SER814 

> <Gold.Protein.RotatedAtoms>
  152.5047  133.8884  159.7381 H   0  0  0  0  0  0  0  0  0  0  0  0  # atno 6907 bound_to 6896
  150.9329  133.6737  159.2813 H   0  0  0  0  0  0  0  0  0  0  0  0  # atno 6908 bound_to 6896
  151.4075  135.0985  159.9627 H   0  0  0  0  0  0  0  0  0  0  0  0  # atno 6909 bound_to 6896
  144.9912  140.7734  143.4553 H   0  0  0  0  0  0  0  0  0  0  0  0  # atno 7974 bound_to 7965
  156.2874  140.2200  156.5268 H   0  0  0  0  0  0  0  0  0  0  0  0  # atno 8008 bound_to 7997
  154.7482  140.0482  157.0892 H   0  0  0  0  0  0  0  0  0  0  0  0  # atno 8009 bound_to 7997
  155.0143  140.3116  155.4820 H   0  0  0  0  0  0  0  0  0  0  0  0  # atno 8010 bound_to 7997
  139.6202  144.7099  151.2652 H   0  0  0  0  0  0  0  0  0  0  0  0  # atno 10167 bound_to 10162
  157.2584  131.0793  151.1683 H   0  0  0  0  0  0  0  0  0  0  0  0  # atno 10718 bound_to 10713
  154.8473  135.3470  154.6173 H   0  0  0  0  0  0  0  0  0  0  0  0  # atno 10763 bound_to 10752
  153.6782  135.6981  153.5130 H   0  0  0  0  0  0  0  0  0  0  0  0  # atno 10764 bound_to 10752
  153.2689  135.4299  155.0924 H   0  0  0  0  0  0  0  0  0  0  0  0  # atno 10765 bound_to 10752
  140.6303  134.4658  157.5229 H   0  0  0  0  0  0  0  0  0  0  0  0  # atno 11005 bound_to 11000
  145.2283  139.2127  143.5056 LP  0  0  0  0  0  0  0  0  0  0  0  0  # atno 17320 bound_to 7965
  146.3432  140.2154  142.8590 LP  0  0  0  0  0  0  0  0  0  0  0  0  # atno 17321 bound_to 7965
  140.7377  143.6671  150.8114 LP  0  0  0  0  0  0  0  0  0  0  0  0  # atno 17342 bound_to 10162
  140.0280  143.5473  152.2772 LP  0  0  0  0  0  0  0  0  0  0  0  0  # atno 17343 bound_to 10162
  157.3202  130.6933  149.6265 LP  0  0  0  0  0  0  0  0  0  0  0  0  # atno 17370 bound_to 10713
  155.9664  130.4337  150.5019 LP  0  0  0  0  0  0  0  0  0  0  0  0  # atno 17371 bound_to 10713
  139.9119  134.8327  156.1500 LP  0  0  0  0  0  0  0  0  0  0  0  0  # atno 17394 bound_to 11000
  141.0680  133.6810  156.2084 LP  0  0  0  0  0  0  0  0  0  0  0  0  # atno 17395 bound_to 11000

$$$$
