AV-unprocessed.smi:536|AV-procd|sdf|2863|dock3
  -GOLD-   2262023353D 1   1.00000     0.00000
 Structure written by MMmdl.
 45 47  0  0  0  0  0  0  0  0  2 V2000
  149.1164  136.9167  159.2857 C   0  0  0  0  0  0  0  0  0  0  0  0
  150.4441  136.6198  158.8934 O   0  0  0  0  0  0  0  0  0  0  0  0
  150.6999  136.9397  157.5362 C   0  0  0  0  0  0  0  0  0  0  0  0
  152.1365  137.4607  157.3533 C   0  0  0  0  0  0  0  0  0  0  0  0
  152.4777  138.5674  158.2461 N   0  0  0  0  0  0  0  0  0  0  0  0
  152.2401  139.8941  158.0634 C   0  0  0  0  0  0  0  0  0  0  0  0
  151.5700  140.3796  156.9399 N   0  0  0  0  0  0  0  0  0  0  0  0
  150.7782  141.6053  156.9273 C   0  0  0  0  0  0  0  0  0  0  0  0
  149.3396  141.4312  156.4039 C   0  0  0  0  0  0  0  0  0  0  0  0
  149.2716  141.2611  154.8787 C   0  0  0  0  0  0  0  0  0  0  0  0
  149.5271  139.8314  154.3683 C   0  0  0  0  0  0  0  0  0  0  0  0
  150.6441  139.0374  155.0715 C   0  0  0  0  0  0  0  0  0  0  0  0
  151.8220  139.8758  155.5929 C   0  0  0  0  0  0  0  0  0  0  0  0
  152.7246  140.6864  159.0210 N   0  0  0  0  0  0  0  0  0  0  0  0
  153.3054  139.7876  159.9022 C   0  0  0  0  0  0  0  0  0  0  0  0
  153.1796  138.5085  159.4563 C   0  0  0  0  0  0  0  0  0  0  0  0
  153.7297  137.3331  160.1704 C   0  0  0  0  0  0  0  0  0  0  0  0
  153.6103  136.1973  159.7156 O   0  0  0  0  0  0  0  0  0  0  0  0
  154.3559  137.6832  161.3383 N   0  5  0  0  0  0  0  0  0  0  0  0
  154.4992  138.9628  161.8291 C   0  0  0  0  0  0  0  0  0  0  0  0
  155.0790  139.1905  162.8919 O   0  0  0  0  0  0  0  0  0  0  0  0
  153.9889  140.0224  161.1264 N   0  0  0  0  0  0  0  0  0  0  0  0
  154.1326  141.3946  161.6210 C   0  0  0  0  0  0  0  0  0  0  0  0
  148.9767  136.6493  160.3331 H   0  0  0  0  0  0  0  0  0  0  0  0
  148.3948  136.3516  158.6945 H   0  0  0  0  0  0  0  0  0  0  0  0
  148.9025  137.9808  159.1782 H   0  0  0  0  0  0  0  0  0  0  0  0
  150.5550  136.0566  156.9126 H   0  0  0  0  0  0  0  0  0  0  0  0
  149.9792  137.6820  157.1986 H   0  0  0  0  0  0  0  0  0  0  0  0
  152.8485  136.6524  157.5106 H   0  0  0  0  0  0  0  0  0  0  0  0
  152.2962  137.7701  156.3218 H   0  0  0  0  0  0  0  0  0  0  0  0
  150.7522  142.0049  157.9403 H   0  0  0  0  0  0  0  0  0  0  0  0
  151.3007  142.3604  156.3388 H   0  0  0  0  0  0  0  0  0  0  0  0
  148.8200  140.6184  156.9100 H   0  0  0  0  0  0  0  0  0  0  0  0
  148.7900  142.3372  156.6608 H   0  0  0  0  0  0  0  0  0  0  0  0
  148.2867  141.5727  154.5294 H   0  0  0  0  0  0  0  0  0  0  0  0
  149.9748  141.9499  154.4090 H   0  0  0  0  0  0  0  0  0  0  0  0
  148.6042  139.2547  154.4389 H   0  0  0  0  0  0  0  0  0  0  0  0
  149.7507  139.8914  153.3026 H   0  0  0  0  0  0  0  0  0  0  0  0
  150.2231  138.4562  155.8932 H   0  0  0  0  0  0  0  0  0  0  0  0
  151.0234  138.2982  154.3655 H   0  0  0  0  0  0  0  0  0  0  0  0
  152.0651  140.6871  154.9058 H   0  0  0  0  0  0  0  0  0  0  0  0
  152.7089  139.2424  155.6313 H   0  0  0  0  0  0  0  0  0  0  0  0
  155.1863  141.6473  161.7473 H   0  0  0  0  0  0  0  0  0  0  0  0
  153.6362  141.5059  162.5861 H   0  0  0  0  0  0  0  0  0  0  0  0
  153.7013  142.1333  160.9456 H   0  0  0  0  0  0  0  0  0  0  0  0
  1  2  1  0  0  0  0
  1 24  1  0  0  0  0
  1 25  1  0  0  0  0
  1 26  1  0  0  0  0
  2  3  1  0  0  0  0
  3  4  1  0  0  0  0
  3 27  1  0  0  0  0
  3 28  1  0  0  0  0
  4  5  1  0  0  0  0
  4 29  1  0  0  0  0
  4 30  1  0  0  0  0
  5 16  1  0  0  0  0
  5  6  1  0  0  0  0
  6  7  1  0  0  0  0
  6 14  2  0  0  0  0
  7 13  1  0  0  0  0
  7  8  1  0  0  0  0
  8  9  1  0  0  0  0
  8 31  1  0  0  0  0
  8 32  1  0  0  0  0
  9 10  1  0  0  0  0
  9 33  1  0  0  0  0
  9 34  1  0  0  0  0
 10 11  1  0  0  0  0
 10 35  1  0  0  0  0
 10 36  1  0  0  0  0
 11 12  1  0  0  0  0
 11 37  1  0  0  0  0
 11 38  1  0  0  0  0
 12 13  1  0  0  0  0
 12 39  1  0  0  0  0
 12 40  1  0  0  0  0
 13 41  1  0  0  0  0
 13 42  1  0  0  0  0
 14 15  1  0  0  0  0
 15 22  1  0  0  0  0
 15 16  2  0  0  0  0
 16 17  1  0  0  0  0
 17 18  2  0  0  0  0
 17 19  1  0  0  0  0
 19 20  1  0  0  0  0
 20 21  2  0  0  0  0
 20 22  1  0  0  0  0
 22 23  1  0  0  0  0
 23 43  1  0  0  0  0
 23 44  1  0  0  0  0
 23 45  1  0  0  0  0
M  CHG  1  19  -1
M  END
> <s_m_source_file>
AV-unprocessed.smi

> <i_m_source_file_index>
536

> <i_lp_mmshare_version>
43012

> <i_f3d_flags>
0

> <s_epik_input>
W0NIM11uMWMoPU8pW25IXWMoPU8pYyhjMTIpbihbQ0gyXVtDSDJdT1tDSDNdKWMobjIpTjNbQ0gyXVtDSDJdW0NIMl1bQ0gyXVtDSDJdW0NIMl0z

> <s_epik_cmdline>
J2VwaWtfcHl0aG9uJywgJy1waCcsICc3LjAnLCAnLXRuJywgJzgnLCAnLW1hJywgJzIwMCcsICctbWV0YWxfYmluZGluZycsICctaW1hZScsICc8aW5maWxlLm1hZT4nLCAnLW9tYWUnLCAnPG91dGZpbGUubWFlPic=

> <r_lp_tautomer_probability>
1

> <r_epik_Ionization_Penalty>
6.16859

> <r_epik_Ionization_Penalty_Charging>
0.0798692

> <r_epik_Ionization_Penalty_Neutral>
6.08873

> <r_epik_State_Penalty>
6.08498

> <r_epik_Charging_Adjusted_Penalty>
6.16485

> <i_epik_Tot_Q>
-1

> <i_epik_Tot_abs_Q>
1

> <r_epik_Metal_State_Penalty>
2.03194

> <b_epik_Metal_Only>
1

> <s_lp_Force_Field>
OPLS_2005

> <r_lp_Energy>
48.7455

> <b_lp_Chiralities_Consistent>
1

> <s_lp_Variant>
AV-unprocessed.smi:536-2

> <Gold.Version>
5.8.1

> <Gold.Id.Protein>
6NUR|6NUR_protein|mol2

> <Gold.PLP.Fitness>
40.5333

> <Gold.PLP.PLP>
-36.1514

> <Gold.PLP.part.hbond>
-2.0000

> <Gold.PLP.part.metal>
0.0000

> <Gold.PLP.part.buried>
-3.8246

> <Gold.PLP.part.nonpolar>
-30.0453

> <Gold.PLP.part.repulsive>
0.0000

> <Gold.PLP.ligand.clash>
0.0000

> <Gold.PLP.ligand.torsion>
1.1111

> <Gold.PLP.Chemscore.Hbond>
1.9280

> <Gold.PLP.Chemscore.CHOScore>
0.0000

> <Gold.PLP.Chemscore.Metal>
0.0000

> <Gold.Chemscore.Hbonds>
donor molecule, donor type, donor heavy atom, donor atom, acceptor molecule, acceptor atom, score
      P1  H  6896  6907       L1    18  0.99
      P1  H  6896  6909       L1     2  0.96

> <Gold.PLP.Chemscore.Internal.Correction>
0.8201

> <Gold.Rescore>
     Score         DG    S(hbond)    S(metal)    S(lipo)     H(rot)  DE(clash)    DE(int)     intcor
     13.42     -15.63       1.80        0.00      66.68       1.44       0.00       2.21       ----

> <Gold.Chemscore.Fitness>
13.4226

> <Gold.Chemscore.DG>
-15.6307

> <Gold.Chemscore.ZeroCoef>
-5.4800

> <Gold.Chemscore.Hbond>
1.8050

> <Gold.Chemscore.Metal>
0.0000

> <Gold.Chemscore.Lipo>
66.6793

> <Gold.Chemscore.Internal_Hbond>
0.0000

> <Gold.Chemscore.DEClash>
0.0000

> <Gold.Chemscore.DEInternal>
2.2082

> <Gold.Chemscore.Rot>
1.4372

> <Gold.Chemscore.Internal.Correction>
   9.000000E+99

> <Gold.Chemscore.Hbonds>
donor molecule, donor type, donor heavy atom, donor atom, acceptor molecule, acceptor atom, score
      P1  H  6896  6907       L1    18  0.91
      P1  H  6896  6909       L1     2  0.45

> <Gold.Chemscore.Hbond.Weighted>
-6.0286

> <Gold.Chemscore.Metal.Weighted>
-0.0000

> <Gold.Chemscore.Lipo.Weighted>
-7.8015

> <Gold.Chemscore.Internal_Hbond.Weighted>
0.0000

> <Gold.Chemscore.DEClash.Weighted>
0.0000

> <Gold.Chemscore.DEInternal.Weighted>
2.2082

> <Gold.Chemscore.Rot.Weighted>
3.6793

> <Gold.Chemscore.Internal.Correction.Weighted>
   9.000000E+99

> <Gold.Protein.RotatedTorsions>
[ 6907 6896 6895 6894 ] final   67.34 input  -60.11 | X-H torsion
[ 7974 7965 7964 7962 ] final   27.64 input  175.53 | X-H torsion
[ 8008 7997 7996 7995 ] final   97.19 input   59.86 | X-H torsion
[ 10167 10162 10161 10158 ] final    7.20 input  -65.29 | X-H torsion
[ 10718 10713 10712 10709 ] final  150.67 input   66.30 | X-H torsion
[ 10763 10752 10751 10750 ] final   56.79 input  -60.55 | X-H torsion
[ 11005 11000 10999 10996 ] final  132.11 input  -57.11 | X-H torsion

> <Gold.Protein.ActiveResidues>
 VAL166  LYS551  ARG553  GLY616  TRP617  ASP618  TYR619  PRO620  LYS621  CYS622 
 ASP623  PHE694  ASN695  SER759  ASP760  ASP761  ALA762  ILE779  LEU786  VAL792 
 PHE793  MET794  SER795  GLU796  ALA797  LYS798  CYS799  TRP800  GLU811  SER814 

> <Gold.Protein.RotatedAtoms>
  152.4545  134.5321  159.9813 H   0  0  0  0  0  0  0  0  0  0  0  0  # atno 6907 bound_to 6896
  151.5385  133.3431  159.2939 H   0  0  0  0  0  0  0  0  0  0  0  0  # atno 6908 bound_to 6896
  150.8485  134.7833  159.7052 H   0  0  0  0  0  0  0  0  0  0  0  0  # atno 6909 bound_to 6896
  146.1773  139.7164  142.8925 H   0  0  0  0  0  0  0  0  0  0  0  0  # atno 7974 bound_to 7965
  156.0875  140.3262  155.7773 H   0  0  0  0  0  0  0  0  0  0  0  0  # atno 8008 bound_to 7997
  155.5051  140.0572  157.2950 H   0  0  0  0  0  0  0  0  0  0  0  0  # atno 8009 bound_to 7997
  154.4618  140.1970  156.0241 H   0  0  0  0  0  0  0  0  0  0  0  0  # atno 8010 bound_to 7997
  140.6385  143.7829  150.7394 H   0  0  0  0  0  0  0  0  0  0  0  0  # atno 10167 bound_to 10162
  157.2805  131.0834  151.1535 H   0  0  0  0  0  0  0  0  0  0  0  0  # atno 10718 bound_to 10713
  152.9838  135.5664  154.5286 H   0  0  0  0  0  0  0  0  0  0  0  0  # atno 10763 bound_to 10752
  154.4761  135.2787  155.1608 H   0  0  0  0  0  0  0  0  0  0  0  0  # atno 10764 bound_to 10752
  154.3136  135.6283  153.5529 H   0  0  0  0  0  0  0  0  0  0  0  0  # atno 10765 bound_to 10752
  139.9770  134.9560  156.9534 H   0  0  0  0  0  0  0  0  0  0  0  0  # atno 11005 bound_to 11000
  145.4176  141.0403  143.2982 LP  0  0  0  0  0  0  0  0  0  0  0  0  # atno 17320 bound_to 7965
  144.8257  139.5714  143.6967 LP  0  0  0  0  0  0  0  0  0  0  0  0  # atno 17321 bound_to 7965
  140.1456  143.4403  152.2165 LP  0  0  0  0  0  0  0  0  0  0  0  0  # atno 17342 bound_to 10162
  139.5595  144.7396  151.4197 LP  0  0  0  0  0  0  0  0  0  0  0  0  # atno 17343 bound_to 10162
  157.2971  130.6824  149.6144 LP  0  0  0  0  0  0  0  0  0  0  0  0  # atno 17370 bound_to 10713
  155.9664  130.4403  150.5294 LP  0  0  0  0  0  0  0  0  0  0  0  0  # atno 17371 bound_to 10713
  140.5174  134.0941  155.7284 LP  0  0  0  0  0  0  0  0  0  0  0  0  # atno 17394 bound_to 11000
  141.1446  133.9077  157.2245 LP  0  0  0  0  0  0  0  0  0  0  0  0  # atno 17395 bound_to 11000

$$$$
