AV-unprocessed.smi:700|AV-procd|sdf|3407|dock5
  -GOLD-   22720 0383D 1   1.00000     0.00000
 Structure written by MMmdl.
 43 44  0  0  0  0  0  0  0  0  1 V2000
  147.6684  133.3517  162.0894 C   0  0  0  0  0  0  0  0  0  0  0  0
  147.9025  134.5038  161.1735 C   0  0  0  0  0  0  0  0  0  0  0  0
  148.3826  134.5959  159.8983 C   0  0  0  0  0  0  0  0  0  0  0  0
  148.3360  135.9905  159.6206 C   0  0  0  0  0  0  0  0  0  0  0  0
  148.7421  136.7060  158.3578 C   0  0  0  0  0  0  0  0  0  0  0  0
  150.2554  136.9501  158.2927 C   0  0  0  0  0  0  0  0  0  0  0  0
  151.0510  136.0118  158.2213 O   0  0  0  0  0  0  0  0  0  0  0  0
  150.6421  138.2347  158.3317 N   0  0  0  0  0  0  0  0  0  0  0  0
  152.0246  138.6981  158.2951 C   0  0  0  0  0  0  0  0  0  0  0  0
  152.3274  139.6725  159.4458 C   0  0  0  0  0  0  0  0  0  0  0  0
  152.4204  141.1310  158.9753 C   0  0  0  0  0  0  0  0  0  0  0  0
  152.9484  142.0677  160.0734 C   0  0  0  0  0  0  0  0  0  0  0  0
  152.6514  143.5535  159.8043 C   0  0  0  0  0  0  0  0  0  0  0  0
  151.6734  144.1679  160.8075 C   0  0  0  0  0  0  0  0  0  0  0  0
  151.1690  145.4418  160.1256 C   0  0  0  0  0  0  0  0  0  0  0  0
  151.2644  145.1788  158.6157 C   0  0  0  0  0  0  0  0  0  0  0  0
  151.9831  143.8327  158.4528 C   0  0  0  0  0  0  0  0  0  0  0  0
  147.8764  136.6799  160.6533 N   0  0  0  0  0  0  0  0  0  0  0  0
  147.5931  135.7376  161.6482 O   0  0  0  0  0  0  0  0  0  0  0  0
  148.2462  132.4823  161.7756 H   0  0  0  0  0  0  0  0  0  0  0  0
  146.6147  133.0728  162.0962 H   0  0  0  0  0  0  0  0  0  0  0  0
  147.9606  133.6001  163.1099 H   0  0  0  0  0  0  0  0  0  0  0  0
  148.7106  133.7902  159.2589 H   0  0  0  0  0  0  0  0  0  0  0  0
  148.4309  136.1352  157.4816 H   0  0  0  0  0  0  0  0  0  0  0  0
  148.2352  137.6694  158.2957 H   0  0  0  0  0  0  0  0  0  0  0  0
  149.9259  138.9440  158.3920 H   0  0  0  0  0  0  0  0  0  0  0  0
  152.7054  137.8455  158.3249 H   0  0  0  0  0  0  0  0  0  0  0  0
  152.1879  139.1921  157.3371 H   0  0  0  0  0  0  0  0  0  0  0  0
  151.5517  139.5880  160.2076 H   0  0  0  0  0  0  0  0  0  0  0  0
  153.2646  139.3910  159.9274 H   0  0  0  0  0  0  0  0  0  0  0  0
  153.0739  141.1909  158.1042 H   0  0  0  0  0  0  0  0  0  0  0  0
  151.4356  141.4646  158.6470 H   0  0  0  0  0  0  0  0  0  0  0  0
  152.5304  141.7777  161.0383 H   0  0  0  0  0  0  0  0  0  0  0  0
  154.0277  141.9340  160.1588 H   0  0  0  0  0  0  0  0  0  0  0  0
  153.5829  144.1200  159.8545 H   0  0  0  0  0  0  0  0  0  0  0  0
  150.8358  143.4890  160.9757 H   0  0  0  0  0  0  0  0  0  0  0  0
  152.1360  144.3686  161.7743 H   0  0  0  0  0  0  0  0  0  0  0  0
  150.1558  145.6964  160.4387 H   0  0  0  0  0  0  0  0  0  0  0  0
  151.8133  146.2808  160.3909 H   0  0  0  0  0  0  0  0  0  0  0  0
  150.2777  145.1489  158.1522 H   0  0  0  0  0  0  0  0  0  0  0  0
  151.8271  145.9777  158.1311 H   0  0  0  0  0  0  0  0  0  0  0  0
  152.6988  143.8448  157.6302 H   0  0  0  0  0  0  0  0  0  0  0  0
  151.2475  143.0571  158.2343 H   0  0  0  0  0  0  0  0  0  0  0  0
  1  2  1  0  0  0  0
  1 20  1  0  0  0  0
  1 21  1  0  0  0  0
  1 22  1  0  0  0  0
  2 19  1  0  0  0  0
  2  3  2  0  0  0  0
  3  4  1  0  0  0  0
  3 23  1  0  0  0  0
  4  5  1  0  0  0  0
  4 18  2  0  0  0  0
  5  6  1  0  0  0  0
  5 24  1  0  0  0  0
  5 25  1  0  0  0  0
  6  7  2  0  0  0  0
  6  8  1  0  0  0  0
  8  9  1  0  0  0  0
  8 26  1  0  0  0  0
  9 10  1  0  0  0  0
  9 27  1  0  0  0  0
  9 28  1  0  0  0  0
 10 11  1  0  0  0  0
 10 29  1  0  0  0  0
 10 30  1  0  0  0  0
 11 12  1  0  0  0  0
 11 31  1  0  0  0  0
 11 32  1  0  0  0  0
 12 13  1  0  0  0  0
 12 33  1  0  0  0  0
 12 34  1  0  0  0  0
 13 17  1  0  0  0  0
 13 14  1  0  0  0  0
 13 35  1  0  0  0  0
 14 15  1  0  0  0  0
 14 36  1  0  0  0  0
 14 37  1  0  0  0  0
 15 16  1  0  0  0  0
 15 38  1  0  0  0  0
 15 39  1  0  0  0  0
 16 17  1  0  0  0  0
 16 40  1  0  0  0  0
 16 41  1  0  0  0  0
 17 42  1  0  0  0  0
 17 43  1  0  0  0  0
 18 19  1  0  0  0  0
M  END
> <s_m_source_file>
AV-unprocessed.smi

> <i_m_source_file_index>
700

> <i_lp_mmshare_version>
43012

> <i_f3d_flags>
0

> <s_epik_input>
W0NIM11jMVtjSF1jKG5vMSlbQ0gyXUMoPU8pW05IXVtDSDJdW0NIMl1bQ0gyXVtDSDJdW0NIXTJbQ0gyXVtDSDJdW0NIMl1bQ0gyXTI=

> <s_epik_cmdline>
J2VwaWtfcHl0aG9uJywgJy1waCcsICc3LjAnLCAnLXRuJywgJzgnLCAnLW1hJywgJzIwMCcsICctbWV0YWxfYmluZGluZycsICctaW1hZScsICc8aW5maWxlLm1hZT4nLCAnLW9tYWUnLCAnPG91dGZpbGUubWFlPic=

> <r_lp_tautomer_probability>
1

> <r_epik_Ionization_Penalty>
7.08657e-08

> <r_epik_Ionization_Penalty_Charging>
0

> <r_epik_Ionization_Penalty_Neutral>
7.08657e-08

> <r_epik_State_Penalty>
-0

> <r_epik_Charging_Adjusted_Penalty>
0

> <i_epik_Tot_Q>
0

> <i_epik_Tot_abs_Q>
0

> <r_epik_Metal_State_Penalty>
-0

> <b_epik_Metal_Only>
0

> <s_lp_Force_Field>
OPLS_2005

> <r_lp_Energy>
19.5762

> <b_lp_Chiralities_Consistent>
1

> <s_lp_Variant>
AV-unprocessed.smi:700-1

> <Gold.Version>
5.8.1

> <Gold.Id.Protein>
6NUR|6NUR_protein|mol2

> <Gold.PLP.Fitness>
50.8453

> <Gold.PLP.PLP>
-45.9303

> <Gold.PLP.part.hbond>
-3.0000

> <Gold.PLP.part.metal>
0.0000

> <Gold.PLP.part.buried>
-6.0727

> <Gold.PLP.part.nonpolar>
-36.4546

> <Gold.PLP.part.repulsive>
0.1449

> <Gold.PLP.ligand.clash>
0.0000

> <Gold.PLP.ligand.torsion>
1.5319

> <Gold.PLP.Chemscore.Hbond>
2.6400

> <Gold.PLP.Chemscore.CHOScore>
0.0000

> <Gold.PLP.Chemscore.Metal>
0.0000

> <Gold.Chemscore.Hbonds>
donor molecule, donor type, donor heavy atom, donor atom, acceptor molecule, acceptor atom, score
      P1  H  6896  6907       L1     7  0.50
      P1  H  6931  6943       L1    18  0.29

> <Gold.PLP.Chemscore.Internal.Correction>
0.0588

> <Gold.Rescore>
     Score         DG    S(hbond)    S(metal)    S(lipo)     H(rot)  DE(clash)    DE(int)     intcor
     20.57     -21.94       1.96        0.00     124.92       1.84       0.03       1.34       ----

> <Gold.Chemscore.Fitness>
20.5727

> <Gold.Chemscore.DG>
-21.9448

> <Gold.Chemscore.ZeroCoef>
-5.4800

> <Gold.Chemscore.Hbond>
1.9640

> <Gold.Chemscore.Metal>
0.0000

> <Gold.Chemscore.Lipo>
124.9183

> <Gold.Chemscore.Internal_Hbond>
0.0000

> <Gold.Chemscore.DEClash>
0.0337

> <Gold.Chemscore.DEInternal>
1.3384

> <Gold.Chemscore.Rot>
1.8399

> <Gold.Chemscore.Internal.Correction>
   9.000000E+99

> <Gold.Chemscore.Hbonds>
donor molecule, donor type, donor heavy atom, donor atom, acceptor molecule, acceptor atom, score
      P1  H  6896  6907       L1     7  0.41
      P1  H  6931  6943       L1    18  0.07
      P1  H  6934  6947       L1    18  0.04

> <Gold.Chemscore.Hbond.Weighted>
-6.5596

> <Gold.Chemscore.Metal.Weighted>
-0.0000

> <Gold.Chemscore.Lipo.Weighted>
-14.6154

> <Gold.Chemscore.Internal_Hbond.Weighted>
0.0000

> <Gold.Chemscore.DEClash.Weighted>
0.0337

> <Gold.Chemscore.DEInternal.Weighted>
1.3384

> <Gold.Chemscore.Rot.Weighted>
4.7103

> <Gold.Chemscore.Internal.Correction.Weighted>
   9.000000E+99

> <Gold.Protein.RotatedTorsions>
[ 6907 6896 6895 6894 ] final  -50.27 input  -60.11 | X-H torsion
[ 7974 7965 7964 7962 ] final   49.31 input  175.53 | X-H torsion
[ 8008 7997 7996 7995 ] final  -41.54 input   59.86 | X-H torsion
[ 10167 10162 10161 10158 ] final  -99.28 input  -65.29 | X-H torsion
[ 10718 10713 10712 10709 ] final   20.26 input   66.30 | X-H torsion
[ 10763 10752 10751 10750 ] final  119.26 input  -60.55 | X-H torsion
[ 11005 11000 10999 10996 ] final    9.44 input  -57.11 | X-H torsion

> <Gold.Protein.ActiveResidues>
 VAL166  LYS551  ARG553  GLY616  TRP617  ASP618  TYR619  PRO620  LYS621  CYS622 
 ASP623  PHE694  ASN695  SER759  ASP760  ASP761  ALA762  ILE779  LEU786  VAL792 
 PHE793  MET794  SER795  GLU796  ALA797  LYS798  CYS799  TRP800  GLU811  SER814 

> <Gold.Protein.RotatedAtoms>
  150.8723  134.8099  159.7163 H   0  0  0  0  0  0  0  0  0  0  0  0  # atno 6907 bound_to 6896
  152.4723  134.4927  159.9710 H   0  0  0  0  0  0  0  0  0  0  0  0  # atno 6908 bound_to 6896
  151.5014  133.3465  159.2905 H   0  0  0  0  0  0  0  0  0  0  0  0  # atno 6909 bound_to 6896
  146.0121  139.4555  142.9950 H   0  0  0  0  0  0  0  0  0  0  0  0  # atno 7974 bound_to 7965
  154.4003  140.1496  156.3208 H   0  0  0  0  0  0  0  0  0  0  0  0  # atno 8008 bound_to 7997
  155.8531  140.3457  155.5685 H   0  0  0  0  0  0  0  0  0  0  0  0  # atno 8009 bound_to 7997
  155.7962  140.0864  157.1972 H   0  0  0  0  0  0  0  0  0  0  0  0  # atno 8010 bound_to 7997
  140.2641  143.3387  152.0597 H   0  0  0  0  0  0  0  0  0  0  0  0  # atno 10167 bound_to 10162
  157.1221  130.6554  149.5927 H   0  0  0  0  0  0  0  0  0  0  0  0  # atno 10718 bound_to 10713
  153.5803  135.3485  155.2872 H   0  0  0  0  0  0  0  0  0  0  0  0  # atno 10763 bound_to 10752
  154.8669  135.4180  154.2627 H   0  0  0  0  0  0  0  0  0  0  0  0  # atno 10764 bound_to 10752
  153.3412  135.7050  153.6936 H   0  0  0  0  0  0  0  0  0  0  0  0  # atno 10765 bound_to 10752
  140.5257  134.0515  155.7858 H   0  0  0  0  0  0  0  0  0  0  0  0  # atno 11005 bound_to 11000
  145.7326  141.0037  143.1343 LP  0  0  0  0  0  0  0  0  0  0  0  0  # atno 17320 bound_to 7965
  144.6957  139.9002  143.7458 LP  0  0  0  0  0  0  0  0  0  0  0  0  # atno 17321 bound_to 7965
  139.5008  144.6699  151.6267 LP  0  0  0  0  0  0  0  0  0  0  0  0  # atno 17342 bound_to 10162
  140.5942  143.9725  150.6344 LP  0  0  0  0  0  0  0  0  0  0  0  0  # atno 17343 bound_to 10162
  155.9826  130.4841  150.6891 LP  0  0  0  0  0  0  0  0  0  0  0  0  # atno 17370 bound_to 10713
  157.4468  131.0868  151.0888 LP  0  0  0  0  0  0  0  0  0  0  0  0  # atno 17371 bound_to 10713
  141.1309  133.9303  157.2536 LP  0  0  0  0  0  0  0  0  0  0  0  0  # atno 17394 bound_to 11000
  139.9581  135.0161  156.9186 LP  0  0  0  0  0  0  0  0  0  0  0  0  # atno 17395 bound_to 11000

$$$$
