AV-unprocessed.smi:283|AV-procd|sdf|2141|dock3
  -GOLD-   2262021473D 1   1.00000     0.00000
 Structure written by MMmdl.
 48 51  0  0  0  0  0  0  0  0  1 V2000
  151.0612  140.1092  155.6161 C   0  0  0  0  0  0  0  0  0  0  0  0
  150.2543  140.9678  156.5990 C   0  0  2  0  0  0  0  0  0  0  0  0
  149.4281  141.9234  155.8632 N   0  0  0  0  0  0  0  0  0  0  0  0
  148.5536  141.5073  154.9201 C   0  0  0  0  0  0  0  0  0  0  0  0
  148.1387  142.3389  153.9287 N   0  0  0  0  0  0  0  0  0  0  0  0
  147.2747  141.9028  153.0077 C   0  0  0  0  0  0  0  0  0  0  0  0
  146.7098  140.6986  152.8986 N   0  0  0  0  0  0  0  0  0  0  0  0
  147.1203  139.8607  153.8953 C   0  0  0  0  0  0  0  0  0  0  0  0
  148.0308  140.1886  154.9375 C   0  0  0  0  0  0  0  0  0  0  0  0
  148.2079  139.0911  155.7704 N   0  0  0  0  0  0  0  0  0  0  0  0
  147.4421  138.1708  155.2477 C   0  0  0  0  0  0  0  0  0  0  0  0
  146.7522  138.5488  154.1176 N   0  0  0  0  0  0  0  0  0  0  0  0
  145.8135  137.7210  153.2967 C   0  0  2  0  0  0  0  0  0  0  0  0
  145.9215  136.4007  153.7090 O   0  0  0  0  0  0  0  0  0  0  0  0
  145.4873  135.5708  152.6458 C   0  0  2  0  0  0  0  0  0  0  0  0
  146.0682  134.1555  152.8110 C   0  0  0  0  0  0  0  0  0  0  0  0
  147.4409  134.1086  152.4788 O   0  0  0  0  0  0  0  0  0  0  0  0
  145.8349  136.3146  151.3411 C   0  0  1  0  0  0  0  0  0  0  0  0
  144.7223  136.2821  150.4684 O   0  0  0  0  0  0  0  0  0  0  0  0
  146.1170  137.7523  151.7844 C   0  0  2  0  0  0  0  0  0  0  0  0
  147.4463  138.1259  151.4716 O   0  0  0  0  0  0  0  0  0  0  0  0
  151.1800  141.6023  157.6398 C   0  0  0  0  0  0  0  0  0  0  0  0
  151.2717  143.0108  157.7317 C   0  0  0  0  0  0  0  0  0  0  0  0
  152.1189  143.6150  158.6795 C   0  0  0  0  0  0  0  0  0  0  0  0
  152.8897  142.8160  159.5429 C   0  0  0  0  0  0  0  0  0  0  0  0
  152.8142  141.4138  159.4534 C   0  0  0  0  0  0  0  0  0  0  0  0
  151.9675  140.8033  158.5065 C   0  0  0  0  0  0  0  0  0  0  0  0
  151.9255  139.0761  158.4346 Cl  0  0  0  0  0  0  0  0  0  0  0  0
  144.8165  138.0960  153.5330 H   0  0  0  0  0  0  0  0  0  0  0  0
  144.4022  135.5105  152.7524 H   0  0  0  0  0  0  0  0  0  0  0  0
  146.6969  135.8818  150.8320 H   0  0  0  0  0  0  0  0  0  0  0  0
  145.4482  138.4745  151.3139 H   0  0  0  0  0  0  0  0  0  0  0  0
  151.6209  139.3346  156.1414 H   0  0  0  0  0  0  0  0  0  0  0  0
  151.7750  140.7127  155.0542 H   0  0  0  0  0  0  0  0  0  0  0  0
  150.4070  139.6118  154.8996 H   0  0  0  0  0  0  0  0  0  0  0  0
  149.5574  140.3021  157.1070 H   0  0  0  0  0  0  0  0  0  0  0  0
  149.4576  142.8761  156.1968 H   0  0  0  0  0  0  0  0  0  0  0  0
  146.9956  142.6209  152.2508 H   0  0  0  0  0  0  0  0  0  0  0  0
  147.3592  137.1824  155.6756 H   0  0  0  0  0  0  0  0  0  0  0  0
  145.9300  133.8021  153.8331 H   0  0  0  0  0  0  0  0  0  0  0  0
  145.5393  133.4608  152.1580 H   0  0  0  0  0  0  0  0  0  0  0  0
  147.7517  134.9931  152.3597 H   0  0  0  0  0  0  0  0  0  0  0  0
  144.3321  137.1429  150.4496 H   0  0  0  0  0  0  0  0  0  0  0  0
  148.0330  137.5890  151.9837 H   0  0  0  0  0  0  0  0  0  0  0  0
  150.6898  143.6389  157.0734 H   0  0  0  0  0  0  0  0  0  0  0  0
  152.1774  144.6917  158.7429 H   0  0  0  0  0  0  0  0  0  0  0  0
  153.5406  143.2770  160.2710 H   0  0  0  0  0  0  0  0  0  0  0  0
  153.4112  140.8033  160.1148 H   0  0  0  0  0  0  0  0  0  0  0  0
  1  2  1  0  0  0  0
  1 33  1  0  0  0  0
  1 34  1  0  0  0  0
  1 35  1  0  0  0  0
  2  3  1  0  0  0  0
  2 22  1  0  0  0  0
  2 36  1  0  0  0  0
  3  4  1  0  0  0  0
  3 37  1  0  0  0  0
  4  9  1  0  0  0  0
  4  5  2  0  0  0  0
  5  6  1  0  0  0  0
  6  7  2  0  0  0  0
  6 38  1  0  0  0  0
  7  8  1  0  0  0  0
  8 12  1  0  0  0  0
  8  9  2  0  0  0  0
  9 10  1  0  0  0  0
 10 11  2  0  0  0  0
 11 12  1  0  0  0  0
 11 39  1  0  0  0  0
 12 13  1  0  0  0  0
 13 29  1  0  0  0  0
 13 20  1  0  0  0  0
 13 14  1  0  0  0  0
 14 15  1  0  0  0  0
 15 30  1  0  0  0  0
 15 16  1  0  0  0  0
 15 18  1  0  0  0  0
 16 17  1  0  0  0  0
 16 40  1  0  0  0  0
 16 41  1  0  0  0  0
 17 42  1  0  0  0  0
 18 31  1  0  0  0  0
 18 19  1  0  0  0  0
 18 20  1  0  0  0  0
 19 43  1  0  0  0  0
 20 32  1  0  0  0  0
 20 21  1  0  0  0  0
 21 44  1  0  0  0  0
 22 27  1  0  0  0  0
 22 23  2  0  0  0  0
 23 24  1  0  0  0  0
 23 45  1  0  0  0  0
 24 25  2  0  0  0  0
 24 46  1  0  0  0  0
 25 26  1  0  0  0  0
 25 47  1  0  0  0  0
 26 27  2  0  0  0  0
 26 48  1  0  0  0  0
 27 28  1  0  0  0  0
M  END
> <s_m_source_file>
AV-unprocessed.smi

> <i_m_source_file_index>
283

> <i_lp_mmshare_version>
43012

> <i_f3d_flags>
0

> <s_epik_input>
Q2xjMVtjSF1bY0hdW2NIXVtjSF1jMVtDQEhdKFtDSDNdKVtOSF1jKG5bY0hdbjIpYyhjMjMpbltjSF1uM1tDQEBIXTRPW0NASF0oW0NIMl1bT0hdKVtDQEBIXShbT0hdKVtDQEhdNFtPSF0=

> <s_epik_cmdline>
J2VwaWtfcHl0aG9uJywgJy1waCcsICc3LjAnLCAnLXRuJywgJzgnLCAnLW1hJywgJzIwMCcsICctbWV0YWxfYmluZGluZycsICctaW1hZScsICc8aW5maWxlLm1hZT4nLCAnLW9tYWUnLCAnPG91dGZpbGUubWFlPic=

> <r_lp_tautomer_probability>
1

> <r_epik_Ionization_Penalty>
0.000266407

> <r_epik_Ionization_Penalty_Charging>
0

> <r_epik_Ionization_Penalty_Neutral>
0.000266407

> <r_epik_State_Penalty>
-0

> <r_epik_Charging_Adjusted_Penalty>
0

> <i_epik_Tot_Q>
0

> <i_epik_Tot_abs_Q>
0

> <r_epik_Metal_State_Penalty>
-0

> <b_epik_Metal_Only>
0

> <s_epik_Chemistry_Notes>
This compound contains an acetal/aminal-like group ( X-CH(R)-Y where X, Y are N, S, or O) that may be acid/base labile, releasing an aldehyde.

> <s_lp_Force_Field>
OPLS_2005

> <r_lp_Energy>
47.2056

> <b_lp_Chiralities_Consistent>
1

> <s_lp_Variant>
AV-unprocessed.smi:283-17

> <Gold.Version>
5.8.1

> <Gold.Id.Protein>
6NUR|6NUR_protein|mol2

> <Gold.PLP.Fitness>
54.2792

> <Gold.PLP.PLP>
-41.3197

> <Gold.PLP.part.hbond>
-6.5810

> <Gold.PLP.part.metal>
0.0000

> <Gold.PLP.part.buried>
-4.3764

> <Gold.PLP.part.nonpolar>
-32.5194

> <Gold.PLP.part.repulsive>
1.7952

> <Gold.PLP.ligand.clash>
0.0542

> <Gold.PLP.ligand.torsion>
0.4714

> <Gold.PLP.Chemscore.Hbond>
4.6061

> <Gold.PLP.Chemscore.CHOScore>
0.0000

> <Gold.PLP.Chemscore.Metal>
0.0000

> <Gold.Chemscore.Hbonds>
donor molecule, donor type, donor heavy atom, donor atom, acceptor molecule, acceptor atom, score
      L1  H     3    37       P1  8028  0.82
      L1  H    17    42       P1  7948  1.00
      L1  H    19    43       P1 10171  1.00
      L1  H    21    44       P1  7948  0.78
      P1  H  7954  7966       L1    21  0.90
      P1  H  8011  8017       L1     5  0.04

> <Gold.PLP.Chemscore.Internal.Correction>
0.1384

> <Gold.Rescore>
     Score         DG    S(hbond)    S(metal)    S(lipo)     H(rot)  DE(clash)    DE(int)     intcor
     14.14     -19.21       3.77        0.00      99.37       4.10       2.31       2.76       ----

> <Gold.Chemscore.Fitness>
14.1398

> <Gold.Chemscore.DG>
-19.2096

> <Gold.Chemscore.ZeroCoef>
-5.4800

> <Gold.Chemscore.Hbond>
3.7699

> <Gold.Chemscore.Metal>
0.0000

> <Gold.Chemscore.Lipo>
99.3672

> <Gold.Chemscore.Internal_Hbond>
0.0000

> <Gold.Chemscore.DEClash>
2.3084

> <Gold.Chemscore.DEInternal>
2.7615

> <Gold.Chemscore.Rot>
4.0968

> <Gold.Chemscore.Internal.Correction>
   9.000000E+99

> <Gold.Chemscore.Hbonds>
donor molecule, donor type, donor heavy atom, donor atom, acceptor molecule, acceptor atom, score
      L1  H     3    37       P1  8028  0.76
      L1  H    17    42       P1  7948  0.90
      L1  H    19    43       P1 10171  0.98
      L1  H    21    44       P1  7948  0.77
      P1  H  7954  7966       L1    21  0.18
      P1  H  8022  8030       L1     5  0.02

> <Gold.Chemscore.Hbond.Weighted>
-12.5916

> <Gold.Chemscore.Metal.Weighted>
-0.0000

> <Gold.Chemscore.Lipo.Weighted>
-11.6260

> <Gold.Chemscore.Internal_Hbond.Weighted>
0.0000

> <Gold.Chemscore.DEClash.Weighted>
2.3084

> <Gold.Chemscore.DEInternal.Weighted>
2.7615

> <Gold.Chemscore.Rot.Weighted>
10.4879

> <Gold.Chemscore.Internal.Correction.Weighted>
   9.000000E+99

> <Gold.Protein.RotatedTorsions>
[ 6907 6896 6895 6894 ] final  -92.64 input  -60.11 | X-H torsion
[ 7974 7965 7964 7962 ] final  -33.37 input  175.53 | X-H torsion
[ 8008 7997 7996 7995 ] final  119.99 input   59.86 | X-H torsion
[ 10167 10162 10161 10158 ] final  126.98 input  -65.29 | X-H torsion
[ 10718 10713 10712 10709 ] final    6.35 input   66.30 | X-H torsion
[ 10763 10752 10751 10750 ] final -101.32 input  -60.55 | X-H torsion
[ 11005 11000 10999 10996 ] final   33.42 input  -57.11 | X-H torsion

> <Gold.Protein.ActiveResidues>
 VAL166  LYS551  ARG553  GLY616  TRP617  ASP618  TYR619  PRO620  LYS621  CYS622 
 ASP623  PHE694  ASN695  SER759  ASP760  ASP761  ALA762  ILE779  LEU786  VAL792 
 PHE793  MET794  SER795  GLU796  ALA797  LYS798  CYS799  TRP800  GLU811  SER814 

> <Gold.Protein.RotatedAtoms>
  150.6909  134.2091  159.4351 H   0  0  0  0  0  0  0  0  0  0  0  0  # atno 6907 bound_to 6896
  152.0054  134.9903  160.0575 H   0  0  0  0  0  0  0  0  0  0  0  0  # atno 6908 bound_to 6896
  152.1539  133.4504  159.4864 H   0  0  0  0  0  0  0  0  0  0  0  0  # atno 6909 bound_to 6896
  146.0916  140.5907  142.8862 H   0  0  0  0  0  0  0  0  0  0  0  0  # atno 7974 bound_to 7965
  156.2622  140.2841  156.1078 H   0  0  0  0  0  0  0  0  0  0  0  0  # atno 8008 bound_to 7997
  155.1290  140.0393  157.2787 H   0  0  0  0  0  0  0  0  0  0  0  0  # atno 8009 bound_to 7997
  154.6614  140.2567  155.7111 H   0  0  0  0  0  0  0  0  0  0  0  0  # atno 8010 bound_to 7997
  139.5602  144.6877  151.4064 H   0  0  0  0  0  0  0  0  0  0  0  0  # atno 10167 bound_to 10162
  156.9209  130.5791  149.5648 H   0  0  0  0  0  0  0  0  0  0  0  0  # atno 10718 bound_to 10713
  154.7648  135.4902  153.9534 H   0  0  0  0  0  0  0  0  0  0  0  0  # atno 10763 bound_to 10752
  153.1295  135.6749  153.9209 H   0  0  0  0  0  0  0  0  0  0  0  0  # atno 10764 bound_to 10752
  153.8917  135.3120  155.3426 H   0  0  0  0  0  0  0  0  0  0  0  0  # atno 10765 bound_to 10752
  140.2633  134.3166  155.7850 H   0  0  0  0  0  0  0  0  0  0  0  0  # atno 11005 bound_to 11000
  144.7364  140.4821  143.6900 LP  0  0  0  0  0  0  0  0  0  0  0  0  # atno 17320 bound_to 7965
  145.6027  139.1505  143.3120 LP  0  0  0  0  0  0  0  0  0  0  0  0  # atno 17321 bound_to 7965
  140.6881  143.7926  150.7215 LP  0  0  0  0  0  0  0  0  0  0  0  0  # atno 17342 bound_to 10162
  140.1400  143.4450  152.2200 LP  0  0  0  0  0  0  0  0  0  0  0  0  # atno 17343 bound_to 10162
  156.0491  130.5563  150.8949 LP  0  0  0  0  0  0  0  0  0  0  0  0  # atno 17370 bound_to 10713
  157.5908  131.0944  150.9122 LP  0  0  0  0  0  0  0  0  0  0  0  0  # atno 17371 bound_to 10713
  141.2187  133.7423  156.9221 LP  0  0  0  0  0  0  0  0  0  0  0  0  # atno 17394 bound_to 11000
  140.1443  134.9273  157.2509 LP  0  0  0  0  0  0  0  0  0  0  0  0  # atno 17395 bound_to 11000

$$$$
