AV-unprocessed.smi:686|AV-procd|sdf|3348|dock2
  -GOLD-   22720 0323D 1   1.00000     0.00000
 Structure written by MMmdl.
 40 41  0  0  0  0  0  0  0  0  3 V2000
  148.3619  140.7347  153.8809 C   0  0  0  0  0  0  0  0  0  0  0  0
  147.6144  139.4316  154.2337 C   0  0  1  0  0  0  0  0  0  0  0  0
  146.9857  138.7013  153.0348 C   0  0  0  0  0  0  0  0  0  0  0  0
  147.0234  137.2496  153.3493 N   0  3  2  0  0  0  0  0  0  0  0  0
  145.7888  136.4882  153.0082 C   0  0  0  0  0  0  0  0  0  0  0  0
  145.7959  135.0785  153.6302 C   0  0  0  0  0  0  0  0  0  0  0  0
  145.6151  136.3750  151.4820 C   0  0  0  0  0  0  0  0  0  0  0  0
  147.4977  137.1228  154.7478 C   0  0  0  0  0  0  0  0  0  0  0  0
  148.3960  138.3409  154.9872 C   0  0  1  0  0  0  0  0  0  0  0  0
  149.7094  138.1170  154.3834 N   0  5  0  0  0  0  0  0  0  0  0  0
  151.0849  138.4073  155.2029 S   0  0  0  0  0  0  0  0  0  0  0  0
  151.9342  137.2169  155.3796 O   0  0  0  0  0  0  0  0  0  0  0  0
  151.7493  139.6176  154.6961 O   0  0  0  0  0  0  0  0  0  0  0  0
  150.4512  138.8581  156.8820 C   0  0  0  0  0  0  0  0  0  0  0  0
  150.6994  140.3161  157.1494 C   0  0  0  0  0  0  0  0  0  0  0  0
  150.2271  141.4433  156.4214 C   0  0  0  0  0  0  0  0  0  0  0  0
  150.7496  142.5049  157.1017 C   0  0  0  0  0  0  0  0  0  0  0  0
  151.4746  142.0769  158.1656 O   0  0  0  0  0  0  0  0  0  0  0  0
  151.4342  140.6783  158.1897 N   0  0  0  0  0  0  0  0  0  0  0  0
  149.1805  140.5675  153.1789 H   0  0  0  0  0  0  0  0  0  0  0  0
  148.7746  141.2187  154.7677 H   0  0  0  0  0  0  0  0  0  0  0  0
  147.6818  141.4470  153.4132 H   0  0  0  0  0  0  0  0  0  0  0  0
  146.7903  139.7167  154.8903 H   0  0  0  0  0  0  0  0  0  0  0  0
  145.9697  139.0638  152.8714 H   0  0  0  0  0  0  0  0  0  0  0  0
  147.5474  138.8722  152.1146 H   0  0  0  0  0  0  0  0  0  0  0  0
  144.9338  137.0312  153.4140 H   0  0  0  0  0  0  0  0  0  0  0  0
  144.9128  134.5143  153.3285 H   0  0  0  0  0  0  0  0  0  0  0  0
  145.7896  135.1114  154.7198 H   0  0  0  0  0  0  0  0  0  0  0  0
  146.6727  134.5110  153.3166 H   0  0  0  0  0  0  0  0  0  0  0  0
  144.7208  135.8032  151.2325 H   0  0  0  0  0  0  0  0  0  0  0  0
  146.4668  135.8708  151.0241 H   0  0  0  0  0  0  0  0  0  0  0  0
  145.5109  137.3496  151.0053 H   0  0  0  0  0  0  0  0  0  0  0  0
  146.6437  137.1665  155.4258 H   0  0  0  0  0  0  0  0  0  0  0  0
  148.0058  136.1731  154.9182 H   0  0  0  0  0  0  0  0  0  0  0  0
  148.4643  138.5803  156.0487 H   0  0  0  0  0  0  0  0  0  0  0  0
  149.3855  138.6332  156.9163 H   0  0  0  0  0  0  0  0  0  0  0  0
  150.9457  138.2341  157.6262 H   0  0  0  0  0  0  0  0  0  0  0  0
  149.6102  141.4666  155.5354 H   0  0  0  0  0  0  0  0  0  0  0  0
  150.6970  143.5743  156.9620 H   0  0  0  0  0  0  0  0  0  0  0  0
  147.7711  136.8706  152.7854 H   0  0  0  0  0  0  0  0  0  0  0  0
  1  2  1  0  0  0  0
  1 20  1  0  0  0  0
  1 21  1  0  0  0  0
  1 22  1  0  0  0  0
  2  9  1  0  0  0  0
  2  3  1  0  0  0  0
  2 23  1  0  0  0  0
  3  4  1  0  0  0  0
  3 24  1  0  0  0  0
  3 25  1  0  0  0  0
  4  5  1  0  0  0  0
  4  8  1  0  0  0  0
  4 40  1  0  0  0  0
  5  6  1  0  0  0  0
  5  7  1  0  0  0  0
  5 26  1  0  0  0  0
  6 27  1  0  0  0  0
  6 28  1  0  0  0  0
  6 29  1  0  0  0  0
  7 30  1  0  0  0  0
  7 31  1  0  0  0  0
  7 32  1  0  0  0  0
  8  9  1  0  0  0  0
  8 33  1  0  0  0  0
  8 34  1  0  0  0  0
  9 10  1  0  0  0  0
  9 35  1  0  0  0  0
 10 11  1  0  0  0  0
 11 12  2  0  0  0  0
 11 13  2  0  0  0  0
 11 14  1  0  0  0  0
 14 15  1  0  0  0  0
 14 36  1  0  0  0  0
 14 37  1  0  0  0  0
 15 19  2  0  0  0  0
 15 16  1  0  0  0  0
 16 17  2  0  0  0  0
 16 38  1  0  0  0  0
 17 18  1  0  0  0  0
 17 39  1  0  0  0  0
 18 19  1  0  0  0  0
M  CHG  1   4   1
M  CHG  1  10  -1
M  END
> <s_m_source_file>
AV-unprocessed.smi

> <i_m_source_file_index>
686

> <i_lp_mmshare_version>
43012

> <i_f3d_flags>
0

> <s_epik_input>
W0NIM11bQ0BASF0xW0NIMl1OKFtDSF0oW0NIM10pW0NIM10pW0NIMl1bQ0BIXTFbTkhdUyg9TykoPU8pW0NIMl1jMltjSF1bY0hdb24y

> <s_epik_cmdline>
J2VwaWtfcHl0aG9uJywgJy1waCcsICc3LjAnLCAnLXRuJywgJzgnLCAnLW1hJywgJzIwMCcsICctbWV0YWxfYmluZGluZycsICctaW1hZScsICc8aW5maWxlLm1hZT4nLCAnLW9tYWUnLCAnPG91dGZpbGUubWFlPic=

> <r_epik_Ionization_Penalty>
3.62478

> <r_epik_Ionization_Penalty_Charging>
3.62478

> <r_epik_Ionization_Penalty_Neutral>
2.03645e-10

> <r_epik_State_Penalty>
3.6247

> <r_epik_Charging_Adjusted_Penalty>
7.24949

> <i_epik_Tot_Q>
0

> <i_epik_Tot_abs_Q>
2

> <r_epik_Metal_State_Penalty>
0.530836

> <b_epik_Metal_Only>
1

> <s_lp_Force_Field>
OPLS_2005

> <r_lp_Energy>
18.5921

> <b_lp_Chiralities_Consistent>
1

> <s_lp_Variant>
AV-unprocessed.smi:686-12

> <Gold.Version>
5.8.1

> <Gold.Id.Protein>
6NUR|6NUR_protein|mol2

> <Gold.PLP.Fitness>
36.4339

> <Gold.PLP.PLP>
-22.6862

> <Gold.PLP.part.hbond>
-3.0000

> <Gold.PLP.part.metal>
0.0000

> <Gold.PLP.part.buried>
-3.9917

> <Gold.PLP.part.nonpolar>
-17.4467

> <Gold.PLP.part.repulsive>
0.3853

> <Gold.PLP.ligand.clash>
0.0000

> <Gold.PLP.ligand.torsion>
0.9883

> <Gold.PLP.Chemscore.Hbond>
3.9675

> <Gold.PLP.Chemscore.CHOScore>
0.8853

> <Gold.PLP.Chemscore.Metal>
0.0000

> <Gold.Chemscore.Hbonds>
donor molecule, donor type, donor heavy atom, donor atom, acceptor molecule, acceptor atom, score
      L1  H     4    40       P1  7948  2.00
      P1  H  7989  7998       L1    13  1.00
      P1  H 10752 10765       L1    12  0.92
      L1  C    17    39       P1  8028  0.89

> <Gold.PLP.Chemscore.Internal.Correction>
1.1660

> <Gold.Rescore>
     Score         DG    S(hbond)    S(metal)    S(lipo)     H(rot)  DE(clash)    DE(int)     intcor
     16.63     -17.74       2.91        0.00      56.99       1.61       0.05       1.06       ----

> <Gold.Chemscore.Fitness>
16.6313

> <Gold.Chemscore.DG>
-17.7407

> <Gold.Chemscore.ZeroCoef>
-5.4800

> <Gold.Chemscore.Hbond>
2.9124

> <Gold.Chemscore.Metal>
0.0000

> <Gold.Chemscore.Lipo>
56.9858

> <Gold.Chemscore.Internal_Hbond>
0.0000

> <Gold.Chemscore.DEClash>
0.0503

> <Gold.Chemscore.DEInternal>
1.0591

> <Gold.Chemscore.Rot>
1.6149

> <Gold.Chemscore.Internal.Correction>
   9.000000E+99

> <Gold.Chemscore.Hbonds>
donor molecule, donor type, donor heavy atom, donor atom, acceptor molecule, acceptor atom, score
      L1  H     4    40       P1  7948  0.99
      P1  H  7989  7998       L1    13  0.97
      P1  H 10752 10765       L1    12  0.84

> <Gold.Chemscore.Hbond.Weighted>
-9.7275

> <Gold.Chemscore.Metal.Weighted>
-0.0000

> <Gold.Chemscore.Lipo.Weighted>
-6.6673

> <Gold.Chemscore.Internal_Hbond.Weighted>
0.0000

> <Gold.Chemscore.DEClash.Weighted>
0.0503

> <Gold.Chemscore.DEInternal.Weighted>
1.0591

> <Gold.Chemscore.Rot.Weighted>
4.1341

> <Gold.Chemscore.Internal.Correction.Weighted>
   9.000000E+99

> <Gold.Protein.RotatedTorsions>
[ 6907 6896 6895 6894 ] final -168.69 input  -60.11 | X-H torsion
[ 7974 7965 7964 7962 ] final  159.98 input  175.53 | X-H torsion
[ 8008 7997 7996 7995 ] final    4.51 input   59.86 | X-H torsion
[ 10167 10162 10161 10158 ] final  109.73 input  -65.29 | X-H torsion
[ 10718 10713 10712 10709 ] final  -20.92 input   66.30 | X-H torsion
[ 10763 10752 10751 10750 ] final -173.81 input  -60.55 | X-H torsion
[ 11005 11000 10999 10996 ] final  156.24 input  -57.11 | X-H torsion

> <Gold.Protein.ActiveResidues>
 VAL166  LYS551  ARG553  GLY616  TRP617  ASP618  TYR619  PRO620  LYS621  CYS622 
 ASP623  PHE694  ASN695  SER759  ASP760  ASP761  ALA762  ILE779  LEU786  VAL792 
 PHE793  MET794  SER795  GLU796  ALA797  LYS798  CYS799  TRP800  GLU811  SER814 

> <Gold.Protein.RotatedAtoms>
  151.4795  133.3550  159.2835 H   0  0  0  0  0  0  0  0  0  0  0  0  # atno 6907 bound_to 6896
  150.8906  134.8312  159.7302 H   0  0  0  0  0  0  0  0  0  0  0  0  # atno 6908 bound_to 6896
  152.4821  134.4705  159.9686 H   0  0  0  0  0  0  0  0  0  0  0  0  # atno 6909 bound_to 6896
  144.7761  139.7694  143.6278 H   0  0  0  0  0  0  0  0  0  0  0  0  # atno 7974 bound_to 7965
  154.7168  140.2704  155.6578 H   0  0  0  0  0  0  0  0  0  0  0  0  # atno 8008 bound_to 7997
  156.2812  140.2742  156.1752 H   0  0  0  0  0  0  0  0  0  0  0  0  # atno 8009 bound_to 7997
  155.0561  140.0371  157.2550 H   0  0  0  0  0  0  0  0  0  0  0  0  # atno 8010 bound_to 7997
  139.6744  144.7123  151.1629 H   0  0  0  0  0  0  0  0  0  0  0  0  # atno 10167 bound_to 10162
  156.5252  130.4642  149.6576 H   0  0  0  0  0  0  0  0  0  0  0  0  # atno 10718 bound_to 10713
  154.6035  135.2857  155.0509 H   0  0  0  0  0  0  0  0  0  0  0  0  # atno 10763 bound_to 10752
  154.1765  135.6464  153.5027 H   0  0  0  0  0  0  0  0  0  0  0  0  # atno 10764 bound_to 10752
  153.0166  135.5413  154.6763 H   0  0  0  0  0  0  0  0  0  0  0  0  # atno 10765 bound_to 10752
  140.1656  134.8579  157.2628 H   0  0  0  0  0  0  0  0  0  0  0  0  # atno 11005 bound_to 11000
  146.1941  139.5197  142.9786 LP  0  0  0  0  0  0  0  0  0  0  0  0  # atno 17320 bound_to 7965
  145.6183  141.0327  143.1929 LP  0  0  0  0  0  0  0  0  0  0  0  0  # atno 17321 bound_to 7965
  140.7630  143.5795  150.8910 LP  0  0  0  0  0  0  0  0  0  0  0  0  # atno 17342 bound_to 10162
  139.9462  143.6324  152.3041 LP  0  0  0  0  0  0  0  0  0  0  0  0  # atno 17343 bound_to 10162
  156.3112  130.7230  151.2123 LP  0  0  0  0  0  0  0  0  0  0  0  0  # atno 17370 bound_to 10713
  157.7430  131.0481  150.4976 LP  0  0  0  0  0  0  0  0  0  0  0  0  # atno 17371 bound_to 10713
  140.2437  134.3765  155.7470 LP  0  0  0  0  0  0  0  0  0  0  0  0  # atno 17394 bound_to 11000
  141.2213  133.7279  156.8829 LP  0  0  0  0  0  0  0  0  0  0  0  0  # atno 17395 bound_to 11000

$$$$
