AV-unprocessed.smi:3145|AV-procd|sdf|11983|dock5
  -GOLD-   2272017383D 1   1.00000     0.00000
 Structure written by MMmdl.
 34 34  0  0  0  0  0  0  0  0  3 V2000
  151.1176  140.4984  155.6227 C   0  0  0  0  0  0  0  0  0  0  0  0
  150.4822  141.8644  155.9328 C   0  0  2  0  0  0  0  0  0  0  0  0
  150.0343  141.9930  157.4073 C   0  0  0  0  0  0  0  0  0  0  0  0
  150.9186  142.8265  158.2018 N   0  0  0  0  0  0  0  0  0  0  0  0
  151.2172  144.1626  158.0353 C   0  0  0  0  0  0  0  0  0  0  0  0
  152.1016  144.5064  159.0171 C   0  0  0  0  0  0  0  0  0  0  0  0
  152.2912  143.2958  159.7404 C   0  0  0  0  0  0  0  0  0  0  0  0
  151.5843  142.2911  159.2479 N   0  0  0  0  0  0  0  0  0  0  0  0
  149.3480  142.0927  155.0121 N   0  3  0  0  0  0  0  0  0  0  0  0
  148.3104  141.0399  155.0012 C   0  0  0  0  0  0  0  0  0  0  0  0
  147.1477  141.4920  154.1155 C   0  0  0  0  0  0  0  0  0  0  0  0
  146.9108  140.8532  153.0857 O   0  0  0  0  0  0  0  0  0  0  0  0
  146.5382  142.5915  154.6383 N   0  5  0  0  0  0  0  0  0  0  0  0
  145.5508  143.3909  153.9176 C   0  0  0  0  0  0  0  0  0  0  0  0
  144.3415  143.6692  154.8233 C   0  0  0  0  0  0  0  0  0  0  0  0
  143.6003  144.8947  154.4756 C   0  0  0  0  0  0  0  0  0  0  0  0
  143.0200  145.8598  154.2029 N   0  0  0  0  0  0  0  0  0  0  0  0
  152.0270  140.3366  156.2021 H   0  0  0  0  0  0  0  0  0  0  0  0
  151.3916  140.4248  154.5695 H   0  0  0  0  0  0  0  0  0  0  0  0
  150.4305  139.6815  155.8450 H   0  0  0  0  0  0  0  0  0  0  0  0
  151.2359  142.6255  155.7245 H   0  0  0  0  0  0  0  0  0  0  0  0
  149.0310  142.4146  157.4739 H   0  0  0  0  0  0  0  0  0  0  0  0
  149.9882  141.0067  157.8712 H   0  0  0  0  0  0  0  0  0  0  0  0
  150.7787  144.7512  157.2429 H   0  0  0  0  0  0  0  0  0  0  0  0
  152.5470  145.4748  159.1907 H   0  0  0  0  0  0  0  0  0  0  0  0
  152.9186  143.1182  160.6015 H   0  0  0  0  0  0  0  0  0  0  0  0
  148.8801  142.9417  155.2978 H   0  0  0  0  0  0  0  0  0  0  0  0
  148.7213  140.1056  154.6179 H   0  0  0  0  0  0  0  0  0  0  0  0
  147.9510  140.8487  156.0138 H   0  0  0  0  0  0  0  0  0  0  0  0
  145.9611  144.3420  153.5757 H   0  0  0  0  0  0  0  0  0  0  0  0
  145.2046  142.8763  153.0208 H   0  0  0  0  0  0  0  0  0  0  0  0
  143.6378  142.8387  154.7631 H   0  0  0  0  0  0  0  0  0  0  0  0
  144.6524  143.7461  155.8658 H   0  0  0  0  0  0  0  0  0  0  0  0
  149.6939  142.2245  154.0728 H   0  0  0  0  0  0  0  0  0  0  0  0
  1  2  1  0  0  0  0
  1 18  1  0  0  0  0
  1 19  1  0  0  0  0
  1 20  1  0  0  0  0
  2  3  1  0  0  0  0
  2  9  1  0  0  0  0
  2 21  1  0  0  0  0
  3  4  1  0  0  0  0
  3 22  1  0  0  0  0
  3 23  1  0  0  0  0
  4  8  1  0  0  0  0
  4  5  1  0  0  0  0
  5  6  2  0  0  0  0
  5 24  1  0  0  0  0
  6  7  1  0  0  0  0
  6 25  1  0  0  0  0
  7  8  2  0  0  0  0
  7 26  1  0  0  0  0
  9 10  1  0  0  0  0
  9 27  1  0  0  0  0
  9 34  1  0  0  0  0
 10 11  1  0  0  0  0
 10 28  1  0  0  0  0
 10 29  1  0  0  0  0
 11 12  2  0  0  0  0
 11 13  1  0  0  0  0
 13 14  1  0  0  0  0
 14 15  1  0  0  0  0
 14 30  1  0  0  0  0
 14 31  1  0  0  0  0
 15 16  1  0  0  0  0
 15 32  1  0  0  0  0
 15 33  1  0  0  0  0
 16 17  3  0  0  0  0
M  CHG  1   9   1
M  CHG  1  13  -1
M  END
> <s_m_source_file>
AV-unprocessed.smi

> <i_m_source_file_index>
3145

> <i_lp_mmshare_version>
43012

> <i_f3d_flags>
0

> <s_epik_input>
bjFbY0hdW2NIXVtjSF1uMVtDSDJdW0NAQEhdKFtDSDNdKVtOSF1bQ0gyXUMoPU8pW05IXVtDSDJdW0NIMl1DI04=

> <s_epik_cmdline>
J2VwaWtfcHl0aG9uJywgJy1waCcsICc3LjAnLCAnLXRuJywgJzgnLCAnLW1hJywgJzIwMCcsICctbWV0YWxfYmluZGluZycsICctaW1hZScsICc8aW5maWxlLm1hZT4nLCAnLW9tYWUnLCAnPG91dGZpbGUubWFlPic=

> <r_lp_tautomer_probability>
1

> <r_epik_Ionization_Penalty>
6.20835

> <r_epik_Ionization_Penalty_Charging>
6.20835

> <r_epik_Ionization_Penalty_Neutral>
3.57231e-06

> <r_epik_State_Penalty>
6.38139

> <r_epik_Charging_Adjusted_Penalty>
12.5897

> <i_epik_Tot_Q>
0

> <i_epik_Tot_abs_Q>
2

> <r_epik_Metal_State_Penalty>
2.31725

> <b_epik_Metal_Only>
1

> <s_lp_Force_Field>
OPLS_2005

> <r_lp_Energy>
-0.295423

> <b_lp_Chiralities_Consistent>
1

> <s_lp_Variant>
AV-unprocessed.smi:3145-5

> <Gold.Version>
5.8.1

> <Gold.Id.Protein>
6NUR|6NUR_protein|mol2

> <Gold.PLP.Fitness>
49.7183

> <Gold.PLP.PLP>
-42.4129

> <Gold.PLP.part.hbond>
-3.0000

> <Gold.PLP.part.metal>
0.0000

> <Gold.PLP.part.buried>
-6.8951

> <Gold.PLP.part.nonpolar>
-33.7073

> <Gold.PLP.part.repulsive>
0.8440

> <Gold.PLP.ligand.clash>
0.0000

> <Gold.PLP.ligand.torsion>
0.9705

> <Gold.PLP.Chemscore.Hbond>
2.0000

> <Gold.PLP.Chemscore.CHOScore>
1.0000

> <Gold.PLP.Chemscore.Metal>
0.0000

> <Gold.Chemscore.Hbonds>
donor molecule, donor type, donor heavy atom, donor atom, acceptor molecule, acceptor atom, score
      L1  H     9    27       P1  8028  2.00
      L1  C     5    24       P1  8028  1.00

> <Gold.PLP.Chemscore.Internal.Correction>
0.2465

> <Gold.Rescore>
     Score         DG    S(hbond)    S(metal)    S(lipo)     H(rot)  DE(clash)    DE(int)     intcor
      9.95     -10.97       1.00        0.00      79.56       2.79       0.04       0.97       ----

> <Gold.Chemscore.Fitness>
9.9541

> <Gold.Chemscore.DG>
-10.9662

> <Gold.Chemscore.ZeroCoef>
-5.4800

> <Gold.Chemscore.Hbond>
0.9978

> <Gold.Chemscore.Metal>
0.0000

> <Gold.Chemscore.Lipo>
79.5609

> <Gold.Chemscore.Internal_Hbond>
0.0000

> <Gold.Chemscore.DEClash>
0.0399

> <Gold.Chemscore.DEInternal>
0.9722

> <Gold.Chemscore.Rot>
2.7949

> <Gold.Chemscore.Internal.Correction>
   9.000000E+99

> <Gold.Chemscore.Hbonds>
donor molecule, donor type, donor heavy atom, donor atom, acceptor molecule, acceptor atom, score
      L1  H     9    27       P1  8028  0.96

> <Gold.Chemscore.Hbond.Weighted>
-3.3327

> <Gold.Chemscore.Metal.Weighted>
-0.0000

> <Gold.Chemscore.Lipo.Weighted>
-9.3086

> <Gold.Chemscore.Internal_Hbond.Weighted>
0.0000

> <Gold.Chemscore.DEClash.Weighted>
0.0399

> <Gold.Chemscore.DEInternal.Weighted>
0.9722

> <Gold.Chemscore.Rot.Weighted>
7.1551

> <Gold.Chemscore.Internal.Correction.Weighted>
   9.000000E+99

> <Gold.Protein.RotatedTorsions>
[ 6907 6896 6895 6894 ] final   18.42 input  -60.11 | X-H torsion
[ 7974 7965 7964 7962 ] final   43.25 input  175.53 | X-H torsion
[ 8008 7997 7996 7995 ] final -177.28 input   59.86 | X-H torsion
[ 10167 10162 10161 10158 ] final   51.75 input  -65.29 | X-H torsion
[ 10718 10713 10712 10709 ] final   49.29 input   66.30 | X-H torsion
[ 10763 10752 10751 10750 ] final -138.10 input  -60.55 | X-H torsion
[ 11005 11000 10999 10996 ] final  -17.91 input  -57.11 | X-H torsion

> <Gold.Protein.ActiveResidues>
 VAL166  LYS551  ARG553  GLY616  TRP617  ASP618  TYR619  PRO620  LYS621  CYS622 
 ASP623  PHE694  ASN695  SER759  ASP760  ASP761  ALA762  ILE779  LEU786  VAL792 
 PHE793  MET794  SER795  GLU796  ALA797  LYS798  CYS799  TRP800  GLU811  SER814 

> <Gold.Protein.RotatedAtoms>
  151.8649  135.0510  160.0473 H   0  0  0  0  0  0  0  0  0  0  0  0  # atno 6907 bound_to 6896
  152.2633  133.5312  159.5403 H   0  0  0  0  0  0  0  0  0  0  0  0  # atno 6908 bound_to 6896
  150.7124  134.0715  159.3908 H   0  0  0  0  0  0  0  0  0  0  0  0  # atno 6909 bound_to 6896
  146.0671  139.5208  142.9621 H   0  0  0  0  0  0  0  0  0  0  0  0  # atno 7974 bound_to 7965
  156.0051  140.1228  157.0509 H   0  0  0  0  0  0  0  0  0  0  0  0  # atno 8008 bound_to 7997
  154.4256  140.1099  156.5820 H   0  0  0  0  0  0  0  0  0  0  0  0  # atno 8009 bound_to 7997
  155.6159  140.3472  155.4639 H   0  0  0  0  0  0  0  0  0  0  0  0  # atno 8010 bound_to 7997
  140.2586  144.3398  150.6325 H   0  0  0  0  0  0  0  0  0  0  0  0  # atno 10167 bound_to 10162
  157.4771  130.8292  149.8052 H   0  0  0  0  0  0  0  0  0  0  0  0  # atno 10718 bound_to 10713
  154.8645  135.3622  154.5329 H   0  0  0  0  0  0  0  0  0  0  0  0  # atno 10763 bound_to 10752
  153.5954  135.7014  153.5411 H   0  0  0  0  0  0  0  0  0  0  0  0  # atno 10764 bound_to 10752
  153.3337  135.4117  155.1477 H   0  0  0  0  0  0  0  0  0  0  0  0  # atno 10765 bound_to 10752
  140.8215  133.8064  155.9664 H   0  0  0  0  0  0  0  0  0  0  0  0  # atno 11005 bound_to 11000
  145.6457  141.0274  143.1787 LP  0  0  0  0  0  0  0  0  0  0  0  0  # atno 17320 bound_to 7965
  144.7209  139.8033  143.7382 LP  0  0  0  0  0  0  0  0  0  0  0  0  # atno 17321 bound_to 7965
  140.5984  143.2167  151.7120 LP  0  0  0  0  0  0  0  0  0  0  0  0  # atno 17342 bound_to 10162
  139.5023  144.3832  152.0355 LP  0  0  0  0  0  0  0  0  0  0  0  0  # atno 17343 bound_to 10162
  156.0102  130.3836  150.2289 LP  0  0  0  0  0  0  0  0  0  0  0  0  # atno 17370 bound_to 10713
  157.0474  131.0053  151.3264 LP  0  0  0  0  0  0  0  0  0  0  0  0  # atno 17371 bound_to 10713
  140.9094  134.2280  157.4995 LP  0  0  0  0  0  0  0  0  0  0  0  0  # atno 17394 bound_to 11000
  139.8708  134.9743  156.4841 LP  0  0  0  0  0  0  0  0  0  0  0  0  # atno 17395 bound_to 11000

$$$$
