AV-unprocessed.smi:3108|AV-procd|sdf|11826|dock3
  -GOLD-   2272017203D 1   1.00000     0.00000
 Structure written by MMmdl.
 37 38  0  0  0  0  0  0  0  0  2 V2000
  153.2180  142.9715  163.3450 C   0  0  0  0  0  0  0  0  0  0  0  0
  152.5843  143.2700  162.0169 C   0  0  0  0  0  0  0  0  0  0  0  0
  151.7285  144.3572  161.6798 C   0  0  0  0  0  0  0  0  0  0  0  0
  151.3388  144.3319  160.4154 N   0  0  0  0  0  0  0  0  0  0  0  0
  151.9318  143.2335  159.9020 N   0  0  0  0  0  0  0  0  0  0  0  0
  151.7216  142.8869  158.5099 C   0  0  0  0  0  0  0  0  0  0  0  0
  150.3629  142.2054  158.2925 C   0  0  0  0  0  0  0  0  0  0  0  0
  149.9509  142.2824  156.8780 N   0  3  0  0  0  0  0  0  0  0  0  0
  151.0265  141.9542  155.9217 C   0  0  0  0  0  0  0  0  0  0  0  0
  151.1329  140.4368  155.6996 C   0  0  0  0  0  0  0  0  0  0  0  0
  152.5659  139.9268  155.5105 C   0  0  0  0  0  0  0  0  0  0  0  0
  152.4250  138.5794  154.7920 C   0  0  0  0  0  0  0  0  0  0  0  0
  151.0359  138.5824  154.1358 C   0  0  0  0  0  0  0  0  0  0  0  0
  150.4295  139.9582  154.4277 C   0  0  0  0  0  0  0  0  0  0  0  0
  152.6867  142.5719  160.8470 C   0  0  0  0  0  0  0  0  0  0  0  0
  152.7975  143.5850  164.1422 H   0  0  0  0  0  0  0  0  0  0  0  0
  154.2919  143.1582  163.3283 H   0  0  0  0  0  0  0  0  0  0  0  0
  153.0764  141.9298  163.6339 H   0  0  0  0  0  0  0  0  0  0  0  0
  151.3808  145.1597  162.3137 H   0  0  0  0  0  0  0  0  0  0  0  0
  151.7900  143.7972  157.9126 H   0  0  0  0  0  0  0  0  0  0  0  0
  152.5349  142.2343  158.1887 H   0  0  0  0  0  0  0  0  0  0  0  0
  150.4145  141.1577  158.5930 H   0  0  0  0  0  0  0  0  0  0  0  0
  149.6032  142.6827  158.9131 H   0  0  0  0  0  0  0  0  0  0  0  0
  149.1853  141.6401  156.7313 H   0  0  0  0  0  0  0  0  0  0  0  0
  150.8130  142.4497  154.9737 H   0  0  0  0  0  0  0  0  0  0  0  0
  151.9751  142.3536  156.2838 H   0  0  0  0  0  0  0  0  0  0  0  0
  150.6854  139.9151  156.5476 H   0  0  0  0  0  0  0  0  0  0  0  0
  153.1252  140.6160  154.8760 H   0  0  0  0  0  0  0  0  0  0  0  0
  153.1065  139.8375  156.4534 H   0  0  0  0  0  0  0  0  0  0  0  0
  153.2197  138.4402  154.0580 H   0  0  0  0  0  0  0  0  0  0  0  0
  152.4951  137.7582  155.5064 H   0  0  0  0  0  0  0  0  0  0  0  0
  151.0866  138.3858  153.0643 H   0  0  0  0  0  0  0  0  0  0  0  0
  150.4183  137.8012  154.5810 H   0  0  0  0  0  0  0  0  0  0  0  0
  149.3451  139.9196  154.5376 H   0  0  0  0  0  0  0  0  0  0  0  0
  150.6528  140.6351  153.6016 H   0  0  0  0  0  0  0  0  0  0  0  0
  153.2306  141.6684  160.6125 H   0  0  0  0  0  0  0  0  0  0  0  0
  149.6277  143.2201  156.6871 H   0  0  0  0  0  0  0  0  0  0  0  0
  1  2  1  0  0  0  0
  1 16  1  0  0  0  0
  1 17  1  0  0  0  0
  1 18  1  0  0  0  0
  2 15  2  0  0  0  0
  2  3  1  0  0  0  0
  3  4  2  0  0  0  0
  3 19  1  0  0  0  0
  4  5  1  0  0  0  0
  5  6  1  0  0  0  0
  5 15  1  0  0  0  0
  6  7  1  0  0  0  0
  6 20  1  0  0  0  0
  6 21  1  0  0  0  0
  7  8  1  0  0  0  0
  7 22  1  0  0  0  0
  7 23  1  0  0  0  0
  8  9  1  0  0  0  0
  8 24  1  0  0  0  0
  8 37  1  0  0  0  0
  9 10  1  0  0  0  0
  9 25  1  0  0  0  0
  9 26  1  0  0  0  0
 10 14  1  0  0  0  0
 10 11  1  0  0  0  0
 10 27  1  0  0  0  0
 11 12  1  0  0  0  0
 11 28  1  0  0  0  0
 11 29  1  0  0  0  0
 12 13  1  0  0  0  0
 12 30  1  0  0  0  0
 12 31  1  0  0  0  0
 13 14  1  0  0  0  0
 13 32  1  0  0  0  0
 13 33  1  0  0  0  0
 14 34  1  0  0  0  0
 14 35  1  0  0  0  0
 15 36  1  0  0  0  0
M  CHG  1   8   1
M  END
> <s_m_source_file>
AV-unprocessed.smi

> <i_m_source_file_index>
3108

> <i_lp_mmshare_version>
43012

> <i_f3d_flags>
0

> <s_epik_input>
W0NIM11jMVtjSF1ubihbY0hdMSlbQ0gyXVtDSDJdW05IXVtDSDJdW0NIXTJbQ0gyXVtDSDJdW0NIMl1bQ0gyXTI=

> <s_epik_cmdline>
J2VwaWtfcHl0aG9uJywgJy1waCcsICc3LjAnLCAnLXRuJywgJzgnLCAnLW1hJywgJzIwMCcsICctbWV0YWxfYmluZGluZycsICctaW1hZScsICc8aW5maWxlLm1hZT4nLCAnLW9tYWUnLCAnPG91dGZpbGUubWFlPic=

> <r_lp_tautomer_probability>
1

> <r_epik_Ionization_Penalty>
0.00170215

> <r_epik_Ionization_Penalty_Charging>
0.00169627

> <r_epik_Ionization_Penalty_Neutral>
5.87243e-06

> <r_epik_State_Penalty>
-0

> <r_epik_Charging_Adjusted_Penalty>
0.00169627

> <i_epik_Tot_Q>
1

> <i_epik_Tot_abs_Q>
1

> <r_epik_Metal_State_Penalty>
-0

> <b_epik_Metal_Only>
0

> <s_lp_Force_Field>
OPLS_2005

> <r_lp_Energy>
23.864

> <b_lp_Chiralities_Consistent>
1

> <s_lp_Variant>
AV-unprocessed.smi:3108-1

> <Gold.Version>
5.8.1

> <Gold.Id.Protein>
6NUR|6NUR_protein|mol2

> <Gold.PLP.Fitness>
46.2471

> <Gold.PLP.PLP>
-42.3330

> <Gold.PLP.part.hbond>
-1.0000

> <Gold.PLP.part.metal>
0.0000

> <Gold.PLP.part.buried>
-3.5965

> <Gold.PLP.part.nonpolar>
-36.1106

> <Gold.PLP.part.repulsive>
0.0984

> <Gold.PLP.ligand.clash>
0.0000

> <Gold.PLP.ligand.torsion>
1.0565

> <Gold.PLP.Chemscore.Hbond>
2.0000

> <Gold.PLP.Chemscore.CHOScore>
0.0000

> <Gold.PLP.Chemscore.Metal>
0.0000

> <Gold.Chemscore.Hbonds>
donor molecule, donor type, donor heavy atom, donor atom, acceptor molecule, acceptor atom, score
      L1  H     8    37       P1  8028  2.00

> <Gold.PLP.Chemscore.Internal.Correction>
0.0271

> <Gold.Rescore>
     Score         DG    S(hbond)    S(metal)    S(lipo)     H(rot)  DE(clash)    DE(int)     intcor
     16.23     -17.42       0.95        0.00     108.33       1.52       0.15       1.04       ----

> <Gold.Chemscore.Fitness>
16.2293

> <Gold.Chemscore.DG>
-17.4227

> <Gold.Chemscore.ZeroCoef>
-5.4800

> <Gold.Chemscore.Hbond>
0.9475

> <Gold.Chemscore.Metal>
0.0000

> <Gold.Chemscore.Lipo>
108.3334

> <Gold.Chemscore.Internal_Hbond>
0.0000

> <Gold.Chemscore.DEClash>
0.1533

> <Gold.Chemscore.DEInternal>
1.0400

> <Gold.Chemscore.Rot>
1.5222

> <Gold.Chemscore.Internal.Correction>
   9.000000E+99

> <Gold.Chemscore.Hbonds>
donor molecule, donor type, donor heavy atom, donor atom, acceptor molecule, acceptor atom, score
      L1  H     8    37       P1  8028  0.98

> <Gold.Chemscore.Hbond.Weighted>
-3.1645

> <Gold.Chemscore.Metal.Weighted>
-0.0000

> <Gold.Chemscore.Lipo.Weighted>
-12.6750

> <Gold.Chemscore.Internal_Hbond.Weighted>
0.0000

> <Gold.Chemscore.DEClash.Weighted>
0.1533

> <Gold.Chemscore.DEInternal.Weighted>
1.0400

> <Gold.Chemscore.Rot.Weighted>
3.8969

> <Gold.Chemscore.Internal.Correction.Weighted>
   9.000000E+99

> <Gold.Protein.RotatedTorsions>
[ 6907 6896 6895 6894 ] final -111.18 input  -60.11 | X-H torsion
[ 7974 7965 7964 7962 ] final  121.32 input  175.53 | X-H torsion
[ 8008 7997 7996 7995 ] final   13.71 input   59.86 | X-H torsion
[ 10167 10162 10161 10158 ] final  141.14 input  -65.29 | X-H torsion
[ 10718 10713 10712 10709 ] final   97.29 input   66.30 | X-H torsion
[ 10763 10752 10751 10750 ] final -128.35 input  -60.55 | X-H torsion
[ 11005 11000 10999 10996 ] final -106.06 input  -57.11 | X-H torsion

> <Gold.Protein.ActiveResidues>
 VAL166  LYS551  ARG553  GLY616  TRP617  ASP618  TYR619  PRO620  LYS621  CYS622 
 ASP623  PHE694  ASN695  SER759  ASP760  ASP761  ALA762  ILE779  LEU786  VAL792 
 PHE793  MET794  SER795  GLU796  ALA797  LYS798  CYS799  TRP800  GLU811  SER814 

> <Gold.Protein.RotatedAtoms>
  150.7673  133.9273  159.3415 H   0  0  0  0  0  0  0  0  0  0  0  0  # atno 6907 bound_to 6896
  151.7168  135.0900  160.0286 H   0  0  0  0  0  0  0  0  0  0  0  0  # atno 6908 bound_to 6896
  152.3675  133.6338  159.6097 H   0  0  0  0  0  0  0  0  0  0  0  0  # atno 6909 bound_to 6896
  145.1207  139.3391  143.4715 H   0  0  0  0  0  0  0  0  0  0  0  0  # atno 7974 bound_to 7965
  154.8383  140.2910  155.5676 H   0  0  0  0  0  0  0  0  0  0  0  0  # atno 8008 bound_to 7997
  156.3010  140.2519  156.3252 H   0  0  0  0  0  0  0  0  0  0  0  0  # atno 8009 bound_to 7997
  154.9154  140.0387  157.1958 H   0  0  0  0  0  0  0  0  0  0  0  0  # atno 8010 bound_to 7997
  139.5029  144.6190  151.6096 H   0  0  0  0  0  0  0  0  0  0  0  0  # atno 10167 bound_to 10162
  157.6914  131.0605  150.4622 H   0  0  0  0  0  0  0  0  0  0  0  0  # atno 10718 bound_to 10713
  154.8756  135.3931  154.3743 H   0  0  0  0  0  0  0  0  0  0  0  0  # atno 10763 bound_to 10752
  153.4498  135.7028  153.6121 H   0  0  0  0  0  0  0  0  0  0  0  0  # atno 10764 bound_to 10752
  153.4666  135.3800  155.2336 H   0  0  0  0  0  0  0  0  0  0  0  0  # atno 10765 bound_to 10752
  141.1023  133.8861  157.1810 H   0  0  0  0  0  0  0  0  0  0  0  0  # atno 11005 bound_to 11000
  146.3521  140.1165  142.8602 LP  0  0  0  0  0  0  0  0  0  0  0  0  # atno 17320 bound_to 7965
  145.0743  140.9177  143.4863 LP  0  0  0  0  0  0  0  0  0  0  0  0  # atno 17321 bound_to 7965
  140.5886  143.9819  150.6311 LP  0  0  0  0  0  0  0  0  0  0  0  0  # atno 17342 bound_to 10162
  140.2992  143.3272  152.0988 LP  0  0  0  0  0  0  0  0  0  0  0  0  # atno 17343 bound_to 10162
  156.4965  130.4107  149.6377 LP  0  0  0  0  0  0  0  0  0  0  0  0  # atno 17370 bound_to 10713
  156.3368  130.7360  151.2299 LP  0  0  0  0  0  0  0  0  0  0  0  0  # atno 17371 bound_to 10713
  139.9879  135.0075  156.9906 LP  0  0  0  0  0  0  0  0  0  0  0  0  # atno 17394 bound_to 11000
  140.4991  134.1116  155.7247 LP  0  0  0  0  0  0  0  0  0  0  0  0  # atno 17395 bound_to 11000

$$$$
