AV-unprocessed.smi:1779|AV-procd|sdf|7182|dock4
  -GOLD-   22720 8423D 1   1.00000     0.00000
 Structure written by MMmdl.
 47 48  0  0  0  0  0  0  0  0  2 V2000
  152.2883  141.1829  158.9480 C   0  0  0  0  0  0  0  0  0  0  0  0
  151.8792  140.6996  157.5879 C   0  0  0  0  0  0  0  0  0  0  0  0
  150.7163  141.0533  156.8438 C   0  0  0  0  0  0  0  0  0  0  0  0
  150.8593  140.3223  155.6961 C   0  0  0  0  0  0  0  0  0  0  0  0
  150.0389  140.2601  154.6134 N   0  0  0  0  0  0  0  0  0  0  0  0
  148.6957  140.2127  154.5789 C   0  0  0  0  0  0  0  0  0  0  0  0
  147.9541  140.2312  155.5611 O   0  0  0  0  0  0  0  0  0  0  0  0
  148.2464  140.1430  153.3183 N   0  0  0  0  0  0  0  0  0  0  0  0
  146.8392  140.0618  152.9437 C   0  0  0  0  0  0  0  0  0  0  0  0
  146.5270  138.7321  152.2350 C   0  0  1  0  0  0  0  0  0  0  0  0
  147.6116  138.4420  151.3759 O   0  0  0  0  0  0  0  0  0  0  0  0
  146.3389  137.5631  153.2274 C   0  0  0  0  0  0  0  0  0  0  0  0
  146.3327  136.2345  152.5625 N   0  3  0  0  0  0  0  0  0  0  0  0
  146.2809  135.1164  153.5408 C   0  0  0  0  0  0  0  0  0  0  0  0
  146.4204  133.7548  152.8389 C   0  0  0  0  0  0  0  0  0  0  0  0
  145.3471  133.5809  151.7568 C   0  0  0  0  0  0  0  0  0  0  0  0
  145.3948  134.7616  150.7784 C   0  0  0  0  0  0  0  0  0  0  0  0
  145.2747  136.1009  151.5245 C   0  0  0  0  0  0  0  0  0  0  0  0
  152.0258  139.5946  155.7746 N   0  0  0  0  0  0  0  0  0  0  0  0
  152.6073  138.6786  154.8126 C   0  0  0  0  0  0  0  0  0  0  0  0
  152.6544  139.8329  156.9460 N   0  0  0  0  0  0  0  0  0  0  0  0
  151.5680  141.8987  159.3451 H   0  0  0  0  0  0  0  0  0  0  0  0
  153.2605  141.6750  158.9142 H   0  0  0  0  0  0  0  0  0  0  0  0
  152.3563  140.3553  159.6544 H   0  0  0  0  0  0  0  0  0  0  0  0
  149.9239  141.7304  157.1254 H   0  0  0  0  0  0  0  0  0  0  0  0
  150.5090  140.2429  153.7206 H   0  0  0  0  0  0  0  0  0  0  0  0
  148.9236  140.1235  152.5701 H   0  0  0  0  0  0  0  0  0  0  0  0
  146.2473  140.1492  153.8563 H   0  0  0  0  0  0  0  0  0  0  0  0
  146.5581  140.9004  152.3036 H   0  0  0  0  0  0  0  0  0  0  0  0
  145.6410  138.8705  151.6162 H   0  0  0  0  0  0  0  0  0  0  0  0
  148.3350  139.0115  151.5884 H   0  0  0  0  0  0  0  0  0  0  0  0
  147.1447  137.6059  153.9623 H   0  0  0  0  0  0  0  0  0  0  0  0
  145.4128  137.6776  153.7928 H   0  0  0  0  0  0  0  0  0  0  0  0
  147.0865  135.2246  154.2683 H   0  0  0  0  0  0  0  0  0  0  0  0
  145.3429  135.1608  154.0966 H   0  0  0  0  0  0  0  0  0  0  0  0
  147.4109  133.6742  152.3888 H   0  0  0  0  0  0  0  0  0  0  0  0
  146.3466  132.9487  153.5696 H   0  0  0  0  0  0  0  0  0  0  0  0
  145.4965  132.6416  151.2236 H   0  0  0  0  0  0  0  0  0  0  0  0
  144.3611  133.5248  152.2203 H   0  0  0  0  0  0  0  0  0  0  0  0
  146.3303  134.7365  150.2178 H   0  0  0  0  0  0  0  0  0  0  0  0
  144.5926  134.6697  150.0455 H   0  0  0  0  0  0  0  0  0  0  0  0
  144.2924  136.1804  151.9929 H   0  0  0  0  0  0  0  0  0  0  0  0
  145.3436  136.9130  150.8021 H   0  0  0  0  0  0  0  0  0  0  0  0
  151.8671  137.9330  154.5209 H   0  0  0  0  0  0  0  0  0  0  0  0
  153.4708  138.1684  155.2414 H   0  0  0  0  0  0  0  0  0  0  0  0
  152.9251  139.2316  153.9284 H   0  0  0  0  0  0  0  0  0  0  0  0
  147.2221  136.1486  152.0919 H   0  0  0  0  0  0  0  0  0  0  0  0
  1  2  1  0  0  0  0
  1 22  1  0  0  0  0
  1 23  1  0  0  0  0
  1 24  1  0  0  0  0
  2 21  2  0  0  0  0
  2  3  1  0  0  0  0
  3  4  2  0  0  0  0
  3 25  1  0  0  0  0
  4  5  1  0  0  0  0
  4 19  1  0  0  0  0
  5  6  1  0  0  0  0
  5 26  1  0  0  0  0
  6  7  2  0  0  0  0
  6  8  1  0  0  0  0
  8  9  1  0  0  0  0
  8 27  1  0  0  0  0
  9 10  1  0  0  0  0
  9 28  1  0  0  0  0
  9 29  1  0  0  0  0
 10 11  1  0  0  0  0
 10 12  1  0  0  0  0
 10 30  1  0  0  0  0
 11 31  1  0  0  0  0
 12 13  1  0  0  0  0
 12 32  1  0  0  0  0
 12 33  1  0  0  0  0
 13 18  1  0  0  0  0
 13 14  1  0  0  0  0
 13 47  1  0  0  0  0
 14 15  1  0  0  0  0
 14 34  1  0  0  0  0
 14 35  1  0  0  0  0
 15 16  1  0  0  0  0
 15 36  1  0  0  0  0
 15 37  1  0  0  0  0
 16 17  1  0  0  0  0
 16 38  1  0  0  0  0
 16 39  1  0  0  0  0
 17 18  1  0  0  0  0
 17 40  1  0  0  0  0
 17 41  1  0  0  0  0
 18 42  1  0  0  0  0
 18 43  1  0  0  0  0
 19 20  1  0  0  0  0
 19 21  1  0  0  0  0
 20 44  1  0  0  0  0
 20 45  1  0  0  0  0
 20 46  1  0  0  0  0
M  CHG  1  13   1
M  END
> <s_m_source_file>
AV-unprocessed.smi

> <i_m_source_file_index>
1779

> <i_lp_mmshare_version>
43012

> <i_f3d_flags>
0

> <s_epik_input>
W0NIM11jMVtjSF1jKG4objEpW0NIM10pW05IXUMoPU8pW05IXVtDSDJdW0NASF0oW09IXSlbQ0gyXU4yW0NIMl1bQ0gyXVtDSDJdW0NIMl1bQ0gyXTI=

> <s_epik_cmdline>
J2VwaWtfcHl0aG9uJywgJy1waCcsICc3LjAnLCAnLXRuJywgJzgnLCAnLW1hJywgJzIwMCcsICctbWV0YWxfYmluZGluZycsICctaW1hZScsICc8aW5maWxlLm1hZT4nLCAnLW9tYWUnLCAnPG91dGZpbGUubWFlPic=

> <r_lp_tautomer_probability>
1

> <r_epik_Ionization_Penalty>
0.00528203

> <r_epik_Ionization_Penalty_Charging>
0.00519125

> <r_epik_Ionization_Penalty_Neutral>
9.07781e-05

> <r_epik_State_Penalty>
0.0037836

> <r_epik_Charging_Adjusted_Penalty>
0.00897485

> <i_epik_Tot_Q>
1

> <i_epik_Tot_abs_Q>
1

> <r_epik_Metal_State_Penalty>
-0

> <b_epik_Metal_Only>
0

> <s_lp_Force_Field>
OPLS_2005

> <r_lp_Energy>
21.4604

> <b_lp_Chiralities_Consistent>
1

> <s_lp_Variant>
AV-unprocessed.smi:1779-2

> <Gold.Version>
5.8.1

> <Gold.Id.Protein>
6NUR|6NUR_protein|mol2

> <Gold.PLP.Fitness>
55.1609

> <Gold.PLP.PLP>
-38.4553

> <Gold.PLP.part.hbond>
-5.9122

> <Gold.PLP.part.metal>
0.0000

> <Gold.PLP.part.buried>
-2.9910

> <Gold.PLP.part.nonpolar>
-30.8063

> <Gold.PLP.part.repulsive>
1.3878

> <Gold.PLP.ligand.clash>
0.0000

> <Gold.PLP.ligand.torsion>
0.6055

> <Gold.PLP.Chemscore.Hbond>
5.9420

> <Gold.PLP.Chemscore.CHOScore>
0.0000

> <Gold.PLP.Chemscore.Metal>
0.0000

> <Gold.Chemscore.Hbonds>
donor molecule, donor type, donor heavy atom, donor atom, acceptor molecule, acceptor atom, score
      L1  H     8    27       P1  7957  1.00
      L1  H    11    31       P1  7957  1.00
      L1  H    13    47       P1  7948  2.00
      P1  H  7954  7966       L1    11  0.90
      P1  H  7997  8010       L1    21  1.00

> <Gold.PLP.Chemscore.Internal.Correction>
0.0907

> <Gold.Rescore>
     Score         DG    S(hbond)    S(metal)    S(lipo)     H(rot)  DE(clash)    DE(int)     intcor
     19.27     -20.20       3.78        0.00      69.31       2.36       0.29       0.64       ----

> <Gold.Chemscore.Fitness>
19.2695

> <Gold.Chemscore.DG>
-20.1973

> <Gold.Chemscore.ZeroCoef>
-5.4800

> <Gold.Chemscore.Hbond>
3.7850

> <Gold.Chemscore.Metal>
0.0000

> <Gold.Chemscore.Lipo>
69.3094

> <Gold.Chemscore.Internal_Hbond>
0.0000

> <Gold.Chemscore.DEClash>
0.2872

> <Gold.Chemscore.DEInternal>
0.6406

> <Gold.Chemscore.Rot>
2.3569

> <Gold.Chemscore.Internal.Correction>
   9.000000E+99

> <Gold.Chemscore.Hbonds>
donor molecule, donor type, donor heavy atom, donor atom, acceptor molecule, acceptor atom, score
      L1  H     8    27       P1  7957  0.97
      L1  H    11    31       P1  7957  0.74
      L1  H    13    47       P1  7948  1.00
      P1  H  7954  7966       L1    11  0.17
      P1  H  7997  8010       L1    21  0.45

> <Gold.Chemscore.Hbond.Weighted>
-12.6418

> <Gold.Chemscore.Metal.Weighted>
-0.0000

> <Gold.Chemscore.Lipo.Weighted>
-8.1092

> <Gold.Chemscore.Internal_Hbond.Weighted>
0.0000

> <Gold.Chemscore.DEClash.Weighted>
0.2872

> <Gold.Chemscore.DEInternal.Weighted>
0.6406

> <Gold.Chemscore.Rot.Weighted>
6.0337

> <Gold.Chemscore.Internal.Correction.Weighted>
   9.000000E+99

> <Gold.Protein.RotatedTorsions>
[ 6907 6896 6895 6894 ] final -140.21 input  -60.11 | X-H torsion
[ 7974 7965 7964 7962 ] final  -36.66 input  175.53 | X-H torsion
[ 8008 7997 7996 7995 ] final   70.17 input   59.86 | X-H torsion
[ 10167 10162 10161 10158 ] final   19.15 input  -65.29 | X-H torsion
[ 10718 10713 10712 10709 ] final   -5.73 input   66.30 | X-H torsion
[ 10763 10752 10751 10750 ] final  -60.50 input  -60.55 | X-H torsion
[ 11005 11000 10999 10996 ] final   87.33 input  -57.11 | X-H torsion

> <Gold.Protein.ActiveResidues>
 VAL166  LYS551  ARG553  GLY616  TRP617  ASP618  TYR619  PRO620  LYS621  CYS622 
 ASP623  PHE694  ASN695  SER759  ASP760  ASP761  ALA762  ILE779  LEU786  VAL792 
 PHE793  MET794  SER795  GLU796  ALA797  LYS798  CYS799  TRP800  GLU811  SER814 

> <Gold.Protein.RotatedAtoms>
  151.0577  133.5570  159.2636 H   0  0  0  0  0  0  0  0  0  0  0  0  # atno 6907 bound_to 6896
  151.2557  135.0636  159.9089 H   0  0  0  0  0  0  0  0  0  0  0  0  # atno 6908 bound_to 6896
  152.5392  134.0331  159.8087 H   0  0  0  0  0  0  0  0  0  0  0  0  # atno 6909 bound_to 6896
  146.0642  140.6305  142.8983 H   0  0  0  0  0  0  0  0  0  0  0  0  # atno 7974 bound_to 7965
  155.7347  140.3491  155.5076 H   0  0  0  0  0  0  0  0  0  0  0  0  # atno 8008 bound_to 7997
  155.9150  140.1057  157.1272 H   0  0  0  0  0  0  0  0  0  0  0  0  # atno 8009 bound_to 7997
  154.4061  140.1260  156.4593 H   0  0  0  0  0  0  0  0  0  0  0  0  # atno 8010 bound_to 7997
  140.5600  143.9354  150.6636 H   0  0  0  0  0  0  0  0  0  0  0  0  # atno 10167 bound_to 10162
  156.7422  130.5213  149.5821 H   0  0  0  0  0  0  0  0  0  0  0  0  # atno 10718 bound_to 10713
  154.2701  135.6292  153.5307 H   0  0  0  0  0  0  0  0  0  0  0  0  # atno 10763 bound_to 10752
  152.9881  135.5608  154.5609 H   0  0  0  0  0  0  0  0  0  0  0  0  # atno 10764 bound_to 10752
  154.5177  135.2880  155.1264 H   0  0  0  0  0  0  0  0  0  0  0  0  # atno 10765 bound_to 10752
  139.8922  134.8415  156.2845 H   0  0  0  0  0  0  0  0  0  0  0  0  # atno 11005 bound_to 11000
  144.7193  140.4317  143.7020 LP  0  0  0  0  0  0  0  0  0  0  0  0  # atno 17320 bound_to 7965
  145.6506  139.1564  143.2864 LP  0  0  0  0  0  0  0  0  0  0  0  0  # atno 17321 bound_to 7965
  140.2802  143.3394  152.1158 LP  0  0  0  0  0  0  0  0  0  0  0  0  # atno 17342 bound_to 10162
  139.5066  144.6816  151.5994 LP  0  0  0  0  0  0  0  0  0  0  0  0  # atno 17343 bound_to 10162
  156.1457  130.6275  151.0527 LP  0  0  0  0  0  0  0  0  0  0  0  0  # atno 17370 bound_to 10713
  157.6813  131.0837  150.7361 LP  0  0  0  0  0  0  0  0  0  0  0  0  # atno 17371 bound_to 10713
  141.0017  133.7147  156.0971 LP  0  0  0  0  0  0  0  0  0  0  0  0  # atno 17394 bound_to 11000
  140.7489  134.4067  157.5544 LP  0  0  0  0  0  0  0  0  0  0  0  0  # atno 17395 bound_to 11000

$$$$
