AV-unprocessed.smi:1545|AV-procd|sdf|6214|dock5
  -GOLD-   22720 6383D 1   1.00000     0.00000
 Structure written by MMmdl.
 42 44  0  0  0  0  0  0  0  0  2 V2000
  152.9559  135.5730  157.0084 O   0  0  0  0  0  0  0  0  0  0  0  0
  152.7374  136.9199  157.3684 C   0  0  0  0  0  0  0  0  0  0  0  0
  152.7784  137.8086  156.1187 C   0  0  0  0  0  0  0  0  0  0  0  0
  152.1843  139.1121  156.3681 N   0  0  0  0  0  0  0  0  0  0  0  0
  151.0155  139.4685  155.6876 C   0  0  0  0  0  0  0  0  0  0  0  0
  150.2426  138.6391  154.9365 N   0  3  0  0  0  0  0  0  0  0  0  0
  149.1749  139.3799  154.4214 C   0  0  0  0  0  0  0  0  0  0  0  0
  148.1171  138.9990  153.6013 C   0  0  0  0  0  0  0  0  0  0  0  0
  147.1923  140.0049  153.2514 C   0  0  0  0  0  0  0  0  0  0  0  0
  147.3375  141.3300  153.7112 C   0  0  0  0  0  0  0  0  0  0  0  0
  148.4121  141.7079  154.5433 C   0  0  0  0  0  0  0  0  0  0  0  0
  149.3215  140.7086  154.8883 C   0  0  0  0  0  0  0  0  0  0  0  0
  150.4775  140.7157  155.6781 N   0  0  0  0  0  0  0  0  0  0  0  0
  150.9139  141.9626  156.3241 C   0  0  0  0  0  0  0  0  0  0  0  0
  150.2953  142.1616  157.7218 C   0  0  2  0  0  0  0  0  0  0  0  0
  149.4822  143.3193  157.7254 O   0  0  0  0  0  0  0  0  0  0  0  0
  151.3695  142.2114  158.7961 C   0  0  0  0  0  0  0  0  0  0  0  0
  151.5515  143.3744  159.5772 C   0  0  0  0  0  0  0  0  0  0  0  0
  152.5561  143.4169  160.5633 C   0  0  0  0  0  0  0  0  0  0  0  0
  153.3848  142.2981  160.7739 C   0  0  0  0  0  0  0  0  0  0  0  0
  153.2095  141.1372  159.9963 C   0  0  0  0  0  0  0  0  0  0  0  0
  154.0069  140.0613  160.1963 F   0  0  0  0  0  0  0  0  0  0  0  0
  152.2056  141.0943  159.0093 C   0  0  0  0  0  0  0  0  0  0  0  0
  152.5420  135.0198  157.6532 H   0  0  0  0  0  0  0  0  0  0  0  0
  151.7973  137.0255  157.9113 H   0  0  0  0  0  0  0  0  0  0  0  0
  153.5359  137.2107  158.0511 H   0  0  0  0  0  0  0  0  0  0  0  0
  153.8192  137.9693  155.8343 H   0  0  0  0  0  0  0  0  0  0  0  0
  152.2903  137.3171  155.2760 H   0  0  0  0  0  0  0  0  0  0  0  0
  152.7260  139.8197  156.8439 H   0  0  0  0  0  0  0  0  0  0  0  0
  148.0028  137.9855  153.2457 H   0  0  0  0  0  0  0  0  0  0  0  0
  146.3546  139.7547  152.6166 H   0  0  0  0  0  0  0  0  0  0  0  0
  146.6089  142.0728  153.4199 H   0  0  0  0  0  0  0  0  0  0  0  0
  148.5138  142.7260  154.8891 H   0  0  0  0  0  0  0  0  0  0  0  0
  152.0031  141.9606  156.3777 H   0  0  0  0  0  0  0  0  0  0  0  0
  150.6432  142.7888  155.6653 H   0  0  0  0  0  0  0  0  0  0  0  0
  149.6358  141.3199  157.9373 H   0  0  0  0  0  0  0  0  0  0  0  0
  149.3577  143.6006  156.8317 H   0  0  0  0  0  0  0  0  0  0  0  0
  150.9228  144.2391  159.4206 H   0  0  0  0  0  0  0  0  0  0  0  0
  152.6919  144.3089  161.1575 H   0  0  0  0  0  0  0  0  0  0  0  0
  154.1554  142.3310  161.5300 H   0  0  0  0  0  0  0  0  0  0  0  0
  152.0820  140.2000  158.4162 H   0  0  0  0  0  0  0  0  0  0  0  0
  150.4303  137.6560  154.7891 H   0  0  0  0  0  0  0  0  0  0  0  0
  1  2  1  0  0  0  0
  1 24  1  0  0  0  0
  2  3  1  0  0  0  0
  2 25  1  0  0  0  0
  2 26  1  0  0  0  0
  3  4  1  0  0  0  0
  3 27  1  0  0  0  0
  3 28  1  0  0  0  0
  4  5  1  0  0  0  0
  4 29  1  0  0  0  0
  5 13  1  0  0  0  0
  5  6  2  0  0  0  0
  6  7  1  0  0  0  0
  6 42  1  0  0  0  0
  7 12  2  0  0  0  0
  7  8  1  0  0  0  0
  8  9  2  0  0  0  0
  8 30  1  0  0  0  0
  9 10  1  0  0  0  0
  9 31  1  0  0  0  0
 10 11  2  0  0  0  0
 10 32  1  0  0  0  0
 11 12  1  0  0  0  0
 11 33  1  0  0  0  0
 12 13  1  0  0  0  0
 13 14  1  0  0  0  0
 14 15  1  0  0  0  0
 14 34  1  0  0  0  0
 14 35  1  0  0  0  0
 15 16  1  0  0  0  0
 15 17  1  0  0  0  0
 15 36  1  0  0  0  0
 16 37  1  0  0  0  0
 17 23  1  0  0  0  0
 17 18  2  0  0  0  0
 18 19  1  0  0  0  0
 18 38  1  0  0  0  0
 19 20  2  0  0  0  0
 19 39  1  0  0  0  0
 20 21  1  0  0  0  0
 20 40  1  0  0  0  0
 21 22  1  0  0  0  0
 21 23  2  0  0  0  0
 23 41  1  0  0  0  0
M  CHG  1   6   1
M  END
> <s_m_source_file>
AV-unprocessed.smi

> <i_m_source_file_index>
1545

> <i_lp_mmshare_version>
43012

> <i_f3d_flags>
0

> <s_epik_input>
W09IXVtDSDJdW0NIMl1bTkhdYyhuMSluKGMoYzEyKVtjSF1bY0hdW2NIXVtjSF0yKVtDSDJdW0NASF0oW09IXSljM1tjSF1bY0hdW2NIXWMoRilbY0hdMw==

> <s_epik_cmdline>
J2VwaWtfcHl0aG9uJywgJy1waCcsICc3LjAnLCAnLXRuJywgJzgnLCAnLW1hJywgJzIwMCcsICctbWV0YWxfYmluZGluZycsICctaW1hZScsICc8aW5maWxlLm1hZT4nLCAnLW9tYWUnLCAnPG91dGZpbGUubWFlPic=

> <r_epik_Ionization_Penalty>
0.0688114

> <r_epik_Ionization_Penalty_Charging>
0.0688055

> <r_epik_Ionization_Penalty_Neutral>
5.85933e-06

> <r_epik_State_Penalty>
0.0602293

> <r_epik_Charging_Adjusted_Penalty>
0.129035

> <i_epik_Tot_Q>
1

> <i_epik_Tot_abs_Q>
1

> <r_epik_Metal_State_Penalty>
2.77411

> <b_epik_Metal_Only>
0

> <s_lp_Force_Field>
OPLS_2005

> <r_lp_Energy>
22.2772

> <b_lp_Chiralities_Consistent>
1

> <s_lp_Variant>
AV-unprocessed.smi:1545-1

> <Gold.Version>
5.8.1

> <Gold.Id.Protein>
6NUR|6NUR_protein|mol2

> <Gold.PLP.Fitness>
50.8333

> <Gold.PLP.PLP>
-47.2736

> <Gold.PLP.part.hbond>
-2.8288

> <Gold.PLP.part.metal>
0.0000

> <Gold.PLP.part.buried>
-3.5848

> <Gold.PLP.part.nonpolar>
-41.7043

> <Gold.PLP.part.repulsive>
0.1905

> <Gold.PLP.ligand.clash>
0.0000

> <Gold.PLP.ligand.torsion>
1.2348

> <Gold.PLP.Chemscore.Hbond>
2.0000

> <Gold.PLP.Chemscore.CHOScore>
0.0000

> <Gold.PLP.Chemscore.Metal>
0.0000

> <Gold.Chemscore.Hbonds>
donor molecule, donor type, donor heavy atom, donor atom, acceptor molecule, acceptor atom, score
      L1  H    16    37       P1  8028  1.00
      P1  H 10752 10764       L1     1  1.00

> <Gold.PLP.Chemscore.Internal.Correction>
0.0293

> <Gold.Rescore>
     Score         DG    S(hbond)    S(metal)    S(lipo)     H(rot)  DE(clash)    DE(int)     intcor
     17.06     -18.57       1.86        0.00     127.77       3.15       0.29       1.22       ----

> <Gold.Chemscore.Fitness>
17.0648

> <Gold.Chemscore.DG>
-18.5710

> <Gold.Chemscore.ZeroCoef>
-5.4800

> <Gold.Chemscore.Hbond>
1.8584

> <Gold.Chemscore.Metal>
0.0000

> <Gold.Chemscore.Lipo>
127.7701

> <Gold.Chemscore.Internal_Hbond>
0.0000

> <Gold.Chemscore.DEClash>
0.2884

> <Gold.Chemscore.DEInternal>
1.2177

> <Gold.Chemscore.Rot>
3.1505

> <Gold.Chemscore.Internal.Correction>
   9.000000E+99

> <Gold.Chemscore.Hbonds>
donor molecule, donor type, donor heavy atom, donor atom, acceptor molecule, acceptor atom, score
      L1  H    16    37       P1  8028  0.89
      P1  H 10752 10764       L1     1  0.85

> <Gold.Chemscore.Hbond.Weighted>
-6.2070

> <Gold.Chemscore.Metal.Weighted>
-0.0000

> <Gold.Chemscore.Lipo.Weighted>
-14.9491

> <Gold.Chemscore.Internal_Hbond.Weighted>
0.0000

> <Gold.Chemscore.DEClash.Weighted>
0.2884

> <Gold.Chemscore.DEInternal.Weighted>
1.2177

> <Gold.Chemscore.Rot.Weighted>
8.0652

> <Gold.Chemscore.Internal.Correction.Weighted>
   9.000000E+99

> <Gold.Protein.RotatedTorsions>
[ 6907 6896 6895 6894 ] final   67.85 input  -60.11 | X-H torsion
[ 7974 7965 7964 7962 ] final   80.20 input  175.53 | X-H torsion
[ 8008 7997 7996 7995 ] final  162.64 input   59.86 | X-H torsion
[ 10167 10162 10161 10158 ] final -115.98 input  -65.29 | X-H torsion
[ 10718 10713 10712 10709 ] final   87.75 input   66.30 | X-H torsion
[ 10763 10752 10751 10750 ] final   -7.88 input  -60.55 | X-H torsion
[ 11005 11000 10999 10996 ] final  136.60 input  -57.11 | X-H torsion

> <Gold.Protein.ActiveResidues>
 VAL166  LYS551  ARG553  GLY616  TRP617  ASP618  TYR619  PRO620  LYS621  CYS622 
 ASP623  PHE694  ASN695  SER759  ASP760  ASP761  ALA762  ILE779  LEU786  VAL792 
 PHE793  MET794  SER795  GLU796  ALA797  LYS798  CYS799  TRP800  GLU811  SER814 

> <Gold.Protein.RotatedAtoms>
  152.4580  134.5248  159.9793 H   0  0  0  0  0  0  0  0  0  0  0  0  # atno 6907 bound_to 6896
  151.5304  133.3444  159.2925 H   0  0  0  0  0  0  0  0  0  0  0  0  # atno 6908 bound_to 6896
  150.8531  134.7893  159.7087 H   0  0  0  0  0  0  0  0  0  0  0  0  # atno 6909 bound_to 6896
  145.6543  139.2455  143.1959 H   0  0  0  0  0  0  0  0  0  0  0  0  # atno 7974 bound_to 7965
  156.2016  140.1745  156.7887 H   0  0  0  0  0  0  0  0  0  0  0  0  # atno 8008 bound_to 7997
  154.5600  140.0701  156.8834 H   0  0  0  0  0  0  0  0  0  0  0  0  # atno 8009 bound_to 7997
  155.2867  140.3352  155.4257 H   0  0  0  0  0  0  0  0  0  0  0  0  # atno 8010 bound_to 7997
  140.0842  143.4760  152.1908 H   0  0  0  0  0  0  0  0  0  0  0  0  # atno 10167 bound_to 10162
  157.6943  131.0268  150.3171 H   0  0  0  0  0  0  0  0  0  0  0  0  # atno 10718 bound_to 10713
  153.4326  135.7012  153.6221 H   0  0  0  0  0  0  0  0  0  0  0  0  # atno 10763 bound_to 10752
  153.4629  135.3732  155.2348 H   0  0  0  0  0  0  0  0  0  0  0  0  # atno 10764 bound_to 10752
  154.8726  135.4024  154.3712 H   0  0  0  0  0  0  0  0  0  0  0  0  # atno 10765 bound_to 10752
  140.0057  134.9460  157.0169 H   0  0  0  0  0  0  0  0  0  0  0  0  # atno 11005 bound_to 11000
  146.1178  140.7347  142.9472 LP  0  0  0  0  0  0  0  0  0  0  0  0  # atno 17320 bound_to 7965
  144.7111  140.4043  143.7079 LP  0  0  0  0  0  0  0  0  0  0  0  0  # atno 17321 bound_to 7965
  139.5762  144.7488  151.3759 LP  0  0  0  0  0  0  0  0  0  0  0  0  # atno 17342 bound_to 10162
  140.7062  143.7507  150.7486 LP  0  0  0  0  0  0  0  0  0  0  0  0  # atno 17343 bound_to 10162
  156.3663  130.3856  149.7210 LP  0  0  0  0  0  0  0  0  0  0  0  0  # atno 17370 bound_to 10713
  156.4640  130.7965  151.2985 LP  0  0  0  0  0  0  0  0  0  0  0  0  # atno 17371 bound_to 10713
  140.4646  134.1449  155.7195 LP  0  0  0  0  0  0  0  0  0  0  0  0  # atno 17394 bound_to 11000
  141.1675  133.8675  157.1672 LP  0  0  0  0  0  0  0  0  0  0  0  0  # atno 17395 bound_to 11000

$$$$
