AV-unprocessed.smi:551|AV-procd|sdf|2898|dock2
  -GOLD-   2262023393D 1   1.00000     0.00000
 Structure written by MMmdl.
 39 40  0  0  0  0  0  0  0  0  2 V2000
  150.8082  138.3365  155.7308 C   0  0  0  0  0  0  0  0  0  0  0  0
  149.8415  139.5310  155.7968 C   0  0  2  0  0  0  0  0  0  0  0  0
  149.7371  140.2701  154.4420 C   0  0  0  0  0  0  0  0  0  0  0  0
  148.3899  140.7821  154.1720 N   0  0  0  0  0  0  0  0  0  0  0  0
  147.7693  141.8470  154.7739 C   0  0  0  0  0  0  0  0  0  0  0  0
  146.5270  141.9485  154.2031 C   0  0  0  0  0  0  0  0  0  0  0  0
  146.4430  140.9441  153.2761 N   0  3  0  0  0  0  0  0  0  0  0  0
  147.5779  140.2374  153.2572 C   0  0  0  0  0  0  0  0  0  0  0  0
  150.1711  140.4212  156.9139 N   0  0  0  0  0  0  0  0  0  0  0  0
  151.3890  140.6858  157.4175 C   0  0  0  0  0  0  0  0  0  0  0  0
  152.4265  140.1788  156.9910 O   0  0  0  0  0  0  0  0  0  0  0  0
  151.4414  141.6954  158.5711 C   0  0  0  0  0  0  0  0  0  0  0  0
  151.0243  143.1003  158.0855 C   0  0  0  0  0  0  0  0  0  0  0  0
  151.0833  144.1272  159.2280 C   0  0  0  0  0  0  0  0  0  0  0  0
  152.4794  144.1657  159.8689 C   0  0  0  0  0  0  0  0  0  0  0  0
  152.9095  142.7706  160.3501 C   0  0  0  0  0  0  0  0  0  0  0  0
  152.8471  141.7432  159.2079 C   0  0  0  0  0  0  0  0  0  0  0  0
  150.4873  137.6177  154.9764 H   0  0  0  0  0  0  0  0  0  0  0  0
  150.8518  137.8120  156.6857 H   0  0  0  0  0  0  0  0  0  0  0  0
  151.8210  138.6490  155.4752 H   0  0  0  0  0  0  0  0  0  0  0  0
  148.8547  139.1290  156.0290 H   0  0  0  0  0  0  0  0  0  0  0  0
  150.4336  141.1072  154.3866 H   0  0  0  0  0  0  0  0  0  0  0  0
  150.0026  139.5969  153.6257 H   0  0  0  0  0  0  0  0  0  0  0  0
  148.2453  142.4346  155.5462 H   0  0  0  0  0  0  0  0  0  0  0  0
  145.7182  142.6424  154.3821 H   0  0  0  0  0  0  0  0  0  0  0  0
  147.7946  139.3919  152.6287 H   0  0  0  0  0  0  0  0  0  0  0  0
  149.3890  140.8900  157.3481 H   0  0  0  0  0  0  0  0  0  0  0  0
  150.7340  141.3768  159.3391 H   0  0  0  0  0  0  0  0  0  0  0  0
  151.6784  143.4285  157.2759 H   0  0  0  0  0  0  0  0  0  0  0  0
  150.0147  143.0721  157.6733 H   0  0  0  0  0  0  0  0  0  0  0  0
  150.8197  145.1164  158.8526 H   0  0  0  0  0  0  0  0  0  0  0  0
  150.3398  143.8755  159.9853 H   0  0  0  0  0  0  0  0  0  0  0  0
  153.2036  144.5403  159.1444 H   0  0  0  0  0  0  0  0  0  0  0  0
  152.4863  144.8663  160.7042 H   0  0  0  0  0  0  0  0  0  0  0  0
  153.9205  142.8139  160.7562 H   0  0  0  0  0  0  0  0  0  0  0  0
  152.2615  142.4498  161.1667 H   0  0  0  0  0  0  0  0  0  0  0  0
  153.1208  140.7586  159.5894 H   0  0  0  0  0  0  0  0  0  0  0  0
  153.5941  142.0005  158.4551 H   0  0  0  0  0  0  0  0  0  0  0  0
  145.6398  140.7613  152.6875 H   0  0  0  0  0  0  0  0  0  0  0  0
  1  2  1  0  0  0  0
  1 18  1  0  0  0  0
  1 19  1  0  0  0  0
  1 20  1  0  0  0  0
  2  3  1  0  0  0  0
  2  9  1  0  0  0  0
  2 21  1  0  0  0  0
  3  4  1  0  0  0  0
  3 22  1  0  0  0  0
  3 23  1  0  0  0  0
  4  8  1  0  0  0  0
  4  5  1  0  0  0  0
  5  6  2  0  0  0  0
  5 24  1  0  0  0  0
  6  7  1  0  0  0  0
  6 25  1  0  0  0  0
  7  8  2  0  0  0  0
  7 39  1  0  0  0  0
  8 26  1  0  0  0  0
  9 10  1  0  0  0  0
  9 27  1  0  0  0  0
 10 11  2  0  0  0  0
 10 12  1  0  0  0  0
 12 17  1  0  0  0  0
 12 13  1  0  0  0  0
 12 28  1  0  0  0  0
 13 14  1  0  0  0  0
 13 29  1  0  0  0  0
 13 30  1  0  0  0  0
 14 15  1  0  0  0  0
 14 31  1  0  0  0  0
 14 32  1  0  0  0  0
 15 16  1  0  0  0  0
 15 33  1  0  0  0  0
 15 34  1  0  0  0  0
 16 17  1  0  0  0  0
 16 35  1  0  0  0  0
 16 36  1  0  0  0  0
 17 37  1  0  0  0  0
 17 38  1  0  0  0  0
M  CHG  1   7   1
M  END
> <s_m_source_file>
AV-unprocessed.smi

> <i_m_source_file_index>
551

> <i_lp_mmshare_version>
43012

> <i_f3d_flags>
0

> <s_epik_input>
W2NIXTFuW2NIXVtjSF1uMVtDSDJdW0NAQEhdKFtDSDNdKVtOSF1DKD1PKVtDSF0yW0NIMl1bQ0gyXVtDSDJdW0NIMl1bQ0gyXTI=

> <s_epik_cmdline>
J2VwaWtfcHl0aG9uJywgJy1waCcsICc3LjAnLCAnLXRuJywgJzgnLCAnLW1hJywgJzIwMCcsICctbWV0YWxfYmluZGluZycsICctaW1hZScsICc8aW5maWxlLm1hZT4nLCAnLW9tYWUnLCAnPG91dGZpbGUubWFlPic=

> <r_lp_tautomer_probability>
1

> <r_epik_Ionization_Penalty>
0.244425

> <r_epik_Ionization_Penalty_Charging>
0

> <r_epik_Ionization_Penalty_Neutral>
0.244425

> <r_epik_State_Penalty>
0.23553

> <r_epik_Charging_Adjusted_Penalty>
0.23553

> <i_epik_Tot_Q>
1

> <i_epik_Tot_abs_Q>
1

> <r_epik_Metal_State_Penalty>
0.528799

> <b_epik_Metal_Only>
0

> <s_lp_Force_Field>
OPLS_2005

> <r_lp_Energy>
14.3189

> <b_lp_Chiralities_Consistent>
1

> <s_lp_Variant>
AV-unprocessed.smi:551-1

> <Gold.Version>
5.8.1

> <Gold.Id.Protein>
6NUR|6NUR_protein|mol2

> <Gold.PLP.Fitness>
46.9317

> <Gold.PLP.PLP>
-35.2216

> <Gold.PLP.part.hbond>
-2.0000

> <Gold.PLP.part.metal>
0.0000

> <Gold.PLP.part.buried>
0.5962

> <Gold.PLP.part.nonpolar>
-33.4854

> <Gold.PLP.part.repulsive>
0.0506

> <Gold.PLP.ligand.clash>
0.0000

> <Gold.PLP.ligand.torsion>
1.0482

> <Gold.PLP.Chemscore.Hbond>
3.0000

> <Gold.PLP.Chemscore.CHOScore>
1.5737

> <Gold.PLP.Chemscore.Metal>
0.0000

> <Gold.Chemscore.Hbonds>
donor molecule, donor type, donor heavy atom, donor atom, acceptor molecule, acceptor atom, score
      L1  H     7    39       P1 10175  2.00
      P1  H  7997  8008       L1    11  1.00
      L1  C     5    24       P1  8028  1.00
      L1  C     8    26       P1  7957  0.56

> <Gold.PLP.Chemscore.Internal.Correction>
0.0855

> <Gold.Rescore>
     Score         DG    S(hbond)    S(metal)    S(lipo)     H(rot)  DE(clash)    DE(int)     intcor
     15.43     -18.16       1.94        0.00      92.35       1.80       0.08       2.65       ----

> <Gold.Chemscore.Fitness>
15.4335

> <Gold.Chemscore.DG>
-18.1629

> <Gold.Chemscore.ZeroCoef>
-5.4800

> <Gold.Chemscore.Hbond>
1.9414

> <Gold.Chemscore.Metal>
0.0000

> <Gold.Chemscore.Lipo>
92.3462

> <Gold.Chemscore.Internal_Hbond>
0.0000

> <Gold.Chemscore.DEClash>
0.0764

> <Gold.Chemscore.DEInternal>
2.6530

> <Gold.Chemscore.Rot>
1.7991

> <Gold.Chemscore.Internal.Correction>
   9.000000E+99

> <Gold.Chemscore.Hbonds>
donor molecule, donor type, donor heavy atom, donor atom, acceptor molecule, acceptor atom, score
      L1  H     7    39       P1 10175  0.32
      P1  H  7997  8008       L1    11  0.95

> <Gold.Chemscore.Hbond.Weighted>
-6.4842

> <Gold.Chemscore.Metal.Weighted>
-0.0000

> <Gold.Chemscore.Lipo.Weighted>
-10.8045

> <Gold.Chemscore.Internal_Hbond.Weighted>
0.0000

> <Gold.Chemscore.DEClash.Weighted>
0.0764

> <Gold.Chemscore.DEInternal.Weighted>
2.6530

> <Gold.Chemscore.Rot.Weighted>
4.6058

> <Gold.Chemscore.Internal.Correction.Weighted>
   9.000000E+99

> <Gold.Protein.RotatedTorsions>
[ 6907 6896 6895 6894 ] final   42.34 input  -60.11 | X-H torsion
[ 7974 7965 7964 7962 ] final  -35.84 input  175.53 | X-H torsion
[ 8008 7997 7996 7995 ] final  -57.80 input   59.86 | X-H torsion
[ 10167 10162 10161 10158 ] final -160.76 input  -65.29 | X-H torsion
[ 10718 10713 10712 10709 ] final   79.83 input   66.30 | X-H torsion
[ 10763 10752 10751 10750 ] final  177.30 input  -60.55 | X-H torsion
[ 11005 11000 10999 10996 ] final   84.32 input  -57.11 | X-H torsion

> <Gold.Protein.ActiveResidues>
 VAL166  LYS551  ARG553  GLY616  TRP617  ASP618  TYR619  PRO620  LYS621  CYS622 
 ASP623  PHE694  ASN695  SER759  ASP760  ASP761  ALA762  ILE779  LEU786  VAL792 
 PHE793  MET794  SER795  GLU796  ALA797  LYS798  CYS799  TRP800  GLU811  SER814 

> <Gold.Protein.RotatedAtoms>
  152.2067  134.8539  160.0501 H   0  0  0  0  0  0  0  0  0  0  0  0  # atno 6907 bound_to 6896
  151.9372  133.3622  159.3960 H   0  0  0  0  0  0  0  0  0  0  0  0  # atno 6908 bound_to 6896
  150.6967  134.4400  159.5332 H   0  0  0  0  0  0  0  0  0  0  0  0  # atno 6909 bound_to 6896
  146.0712  140.6207  142.8951 H   0  0  0  0  0  0  0  0  0  0  0  0  # atno 7974 bound_to 7965
  154.4282  140.1098  156.5855 H   0  0  0  0  0  0  0  0  0  0  0  0  # atno 8008 bound_to 7997
  155.6067  140.3494  155.4591 H   0  0  0  0  0  0  0  0  0  0  0  0  # atno 8009 bound_to 7997
  156.0131  140.1223  157.0423 H   0  0  0  0  0  0  0  0  0  0  0  0  # atno 8010 bound_to 7997
  139.6515  144.0075  152.2165 H   0  0  0  0  0  0  0  0  0  0  0  0  # atno 10167 bound_to 10162
  157.6788  130.9932  150.1990 H   0  0  0  0  0  0  0  0  0  0  0  0  # atno 10718 bound_to 10713
  154.4926  135.2779  155.1485 H   0  0  0  0  0  0  0  0  0  0  0  0  # atno 10763 bound_to 10752
  154.3150  135.6221  153.5486 H   0  0  0  0  0  0  0  0  0  0  0  0  # atno 10764 bound_to 10752
  152.9890  135.5729  154.5351 H   0  0  0  0  0  0  0  0  0  0  0  0  # atno 10765 bound_to 10752
  139.9004  134.8208  156.2429 H   0  0  0  0  0  0  0  0  0  0  0  0  # atno 11005 bound_to 11000
  144.7233  140.4444  143.6992 LP  0  0  0  0  0  0  0  0  0  0  0  0  # atno 17320 bound_to 7965
  145.6387  139.1547  143.2927 LP  0  0  0  0  0  0  0  0  0  0  0  0  # atno 17321 bound_to 7965
  139.9790  144.6441  150.7918 LP  0  0  0  0  0  0  0  0  0  0  0  0  # atno 17342 bound_to 10162
  140.7540  143.3019  151.3060 LP  0  0  0  0  0  0  0  0  0  0  0  0  # atno 17343 bound_to 10162
  156.2685  130.3719  149.8056 LP  0  0  0  0  0  0  0  0  0  0  0  0  # atno 17370 bound_to 10713
  156.5780  130.8453  151.3375 LP  0  0  0  0  0  0  0  0  0  0  0  0  # atno 17371 bound_to 10713
  141.0273  133.7008  156.1370 LP  0  0  0  0  0  0  0  0  0  0  0  0  # atno 17394 bound_to 11000
  140.7147  134.4423  157.5579 LP  0  0  0  0  0  0  0  0  0  0  0  0  # atno 17395 bound_to 11000

$$$$
