#       Name:                AV-unprocessed.smi:1920
#       Creating user name   scv26
#       Creation time:       Fri Mar 27 09:52:20 2020


#       File generated by GOLD software.
#

@<TRIPOS>MOLECULE
AV-unprocessed.smi:1920
    39    40     1
SMALL
NO_CHARGES


@<TRIPOS>ATOM
      1 ****        -1.8619  -0.4501   0.8556 C.3            1 S1                 0.0000
      2 ****        -1.4043   0.3202  -0.3972 C.3            1 S1                 0.0000
      3 ****        -2.0111  -0.2318  -1.7020 C.3            1 S1                 0.0000
      4 ****        -3.4771  -0.2009  -1.7076 N.pl3          1 S1                 0.0000
      5 ****        -4.2805   0.9001  -1.8588 C.2            1 S1                 0.0000
      6 ****        -5.5745   0.4506  -1.8018 C.2            1 S1                 0.0000
      7 ****        -5.5064  -0.9052  -1.6220 N.pl3          1 S1                 1.0000
      8 ****        -4.2301  -1.3000  -1.5679 C.2            1 S1                 0.0000
      9 ****         0.0518   0.2972  -0.5017 N.am           1 S1                 0.0000
     10 ****         0.8910   1.1162   0.1516 C.2            1 S1                 0.0000
     11 ****         0.5125   1.9952   0.9257 O.2            1 S1                 0.0000
     12 ****         2.3870   0.9119  -0.1105 C.3            1 S1                 0.0000
     13 ****         3.2291   0.7905   1.1784 C.3            1 S1                 0.0000
     14 ****         2.8473  -0.3866   2.0439 C.2            1 S1                 0.0000
     15 ****         3.8839  -1.1697   2.3335 C.2            1 S1                 0.0000
     16 ****         5.1658  -0.6789   1.7203 C.3            1 S1                 0.0000
     17 ****         4.7367   0.5588   0.9006 C.3            1 S1                 0.0000
     18 ****        -2.9413  -0.3844   0.9932 H              1 S1                 0.0000
     19 ****        -1.4001  -0.0481   1.7581 H              1 S1                 0.0000
     20 ****        -1.5972  -1.5060   0.7903 H              1 S1                 0.0000
     21 ****        -1.7267   1.3581  -0.2953 H              1 S1                 0.0000
     22 ****        -1.6713   0.3538  -2.5574 H              1 S1                 0.0000
     23 ****        -1.6872  -1.2599  -1.8735 H              1 S1                 0.0000
     24 ****        -3.8815   1.8956  -1.9904 H              1 S1                 0.0000
     25 ****        -6.5134   0.9801  -1.8747 H              1 S1                 0.0000
     26 ****        -3.8787  -2.3076  -1.4332 H              1 S1                 0.0000
     27 ****         0.4546  -0.3948  -1.1171 H              1 S1                 0.0000
     28 ****         2.5321   0.0248  -0.7296 H              1 S1                 0.0000
     29 ****         2.7421   1.7582  -0.6996 H              1 S1                 0.0000
     30 ****         3.1103   1.6915   1.7823 H              1 S1                 0.0000
     31 ****         1.8372  -0.5447   2.3927 H              1 S1                 0.0000
     32 ****         3.8419  -2.0574   2.9472 H              1 S1                 0.0000
     33 ****         5.8781  -0.4182   2.5037 H              1 S1                 0.0000
     34 ****         5.6078  -1.4501   1.0888 H              1 S1                 0.0000
     35 ****         4.9163   0.3768  -0.1598 H              1 S1                 0.0000
     36 ****         5.3248   1.4352   1.1751 H              1 S1                 0.0000
     37 ****        -6.3052  -1.5221  -1.5419 H              1 S1                 0.0000
     38 ****        -0.4645   2.1266   1.0939 LP             1 S1                 0.0000
     39 ****         1.1819   2.5780   1.3864 LP             1 S1                 0.0000
@<TRIPOS>BOND
    1    1    2 1     
    2    1   18 1     
    3    1   19 1     
    4    1   20 1     
    5    2    3 1     
    6    2    9 1     
    7    2   21 1     
    8    3    4 1     
    9    3   22 1     
   10    3   23 1     
   11    4    8 1     
   12    4    5 1     
   13    5    6 2     
   14    5   24 1     
   15    6    7 1     
   16    6   25 1     
   17    7    8 2     
   18    7   37 1     
   19    8   26 1     
   20    9   10 am    
   21    9   27 1     
   22   10   11 2     
   23   10   12 1     
   24   12   13 1     
   25   12   28 1     
   26   12   29 1     
   27   13   17 1     
   28   13   14 1     
   29   13   30 1     
   30   14   15 2     
   31   14   31 1     
   32   15   16 1     
   33   15   32 1     
   34   16   17 1     
   35   16   33 1     
   36   16   34 1     
   37   17   35 1     
   38   17   36 1     
   39   11   38 1     
   40   11   39 1     
@<TRIPOS>SUBSTRUCTURE
      1 S1             1
@<TRIPOS>SET
LONE_PAIRS      STATIC     ATOMS    <user>   **** ""
2 38 39
DONOR_HYDROGENS      STATIC     ATOMS    <user>   **** ""
2 37 27
ATOM$BLUE        STATIC     ATOMS    COLORGROUP SYSTEM
2 38 39
ATOM$RED        STATIC     ATOMS    COLORGROUP SYSTEM
2 37 27
