AV-unprocessed.smi:1844|AV-procd|sdf|7511|dock2
  -GOLD-   22720 9213D 1   1.00000     0.00000
 Structure written by MMmdl.
 45 46  0  0  0  0  0  0  0  0  1 V2000
  141.8091  140.6718  155.8624 C   0  0  0  0  0  0  0  0  0  0  0  0
  143.1830  140.8826  155.4320 N   0  0  0  0  0  0  0  0  0  0  0  0
  144.2517  140.8284  156.2439 C   0  0  0  0  0  0  0  0  0  0  0  0
  144.1384  140.5890  157.4472 O   0  0  0  0  0  0  0  0  0  0  0  0
  145.5250  141.0782  155.5639 C   0  0  0  0  0  0  0  0  0  0  0  0
  145.7063  142.1276  154.5717 C   0  0  0  0  0  0  0  0  0  0  0  0
  146.9091  142.3286  153.9986 C   0  0  0  0  0  0  0  0  0  0  0  0
  148.0752  141.5101  154.3428 C   0  0  0  0  0  0  0  0  0  0  0  0
  149.1820  141.7068  153.8413 O   0  0  0  0  0  0  0  0  0  0  0  0
  147.8561  140.5215  155.2618 N   0  0  0  0  0  0  0  0  0  0  0  0
  148.9516  139.6389  155.7028 C   0  0  0  0  0  0  0  0  0  0  0  0
  150.2651  140.3666  156.0393 C   0  0  0  0  0  0  0  0  0  0  0  0
  151.2290  140.2411  155.2851 O   0  0  0  0  0  0  0  0  0  0  0  0
  150.3070  141.1094  157.1584 N   0  0  0  0  0  0  0  0  0  0  0  0
  151.4694  141.8295  157.6685 C   0  0  1  0  0  0  0  0  0  0  0  0
  151.1673  143.3414  157.7310 C   0  0  0  0  0  0  0  0  0  0  0  0
  152.3456  144.1286  158.3221 C   0  0  0  0  0  0  0  0  0  0  0  0
  152.7306  143.5892  159.7066 C   0  0  0  0  0  0  0  0  0  0  0  0
  153.0421  142.0861  159.6464 C   0  0  0  0  0  0  0  0  0  0  0  0
  151.8647  141.2799  159.0619 C   0  0  2  0  0  0  0  0  0  0  0  0
  152.1952  139.7762  159.0338 C   0  0  0  0  0  0  0  0  0  0  0  0
  146.5981  140.3206  155.8630 C   0  0  0  0  0  0  0  0  0  0  0  0
  141.1362  140.7507  155.0084 H   0  0  0  0  0  0  0  0  0  0  0  0
  141.5141  141.4200  156.5995 H   0  0  0  0  0  0  0  0  0  0  0  0
  141.6865  139.6812  156.3024 H   0  0  0  0  0  0  0  0  0  0  0  0
  143.3343  141.0818  154.4537 H   0  0  0  0  0  0  0  0  0  0  0  0
  144.8880  142.7653  154.2718 H   0  0  0  0  0  0  0  0  0  0  0  0
  147.0190  143.1138  153.2651 H   0  0  0  0  0  0  0  0  0  0  0  0
  148.6397  139.0813  156.5871 H   0  0  0  0  0  0  0  0  0  0  0  0
  149.1620  138.8751  154.9522 H   0  0  0  0  0  0  0  0  0  0  0  0
  149.4683  141.1587  157.7182 H   0  0  0  0  0  0  0  0  0  0  0  0
  152.3091  141.6685  156.9891 H   0  0  0  0  0  0  0  0  0  0  0  0
  150.9409  143.7226  156.7346 H   0  0  0  0  0  0  0  0  0  0  0  0
  150.2764  143.5151  158.3363 H   0  0  0  0  0  0  0  0  0  0  0  0
  153.2028  144.0622  157.6511 H   0  0  0  0  0  0  0  0  0  0  0  0
  152.0889  145.1859  158.3922 H   0  0  0  0  0  0  0  0  0  0  0  0
  153.5948  144.1323  160.0902 H   0  0  0  0  0  0  0  0  0  0  0  0
  151.9159  143.7677  160.4092 H   0  0  0  0  0  0  0  0  0  0  0  0
  153.9348  141.9252  159.0405 H   0  0  0  0  0  0  0  0  0  0  0  0
  153.2814  141.7252  160.6473 H   0  0  0  0  0  0  0  0  0  0  0  0
  151.0125  141.4119  159.7307 H   0  0  0  0  0  0  0  0  0  0  0  0
  153.0210  139.5663  158.3534 H   0  0  0  0  0  0  0  0  0  0  0  0
  151.3405  139.1791  158.7146 H   0  0  0  0  0  0  0  0  0  0  0  0
  152.4829  139.4209  160.0236 H   0  0  0  0  0  0  0  0  0  0  0  0
  146.5780  139.5211  156.5910 H   0  0  0  0  0  0  0  0  0  0  0  0
  1  2  1  0  0  0  0
  1 23  1  0  0  0  0
  1 24  1  0  0  0  0
  1 25  1  0  0  0  0
  2  3  1  0  0  0  0
  2 26  1  0  0  0  0
  3  4  2  0  0  0  0
  3  5  1  0  0  0  0
  5 22  2  0  0  0  0
  5  6  1  0  0  0  0
  6  7  2  0  0  0  0
  6 27  1  0  0  0  0
  7  8  1  0  0  0  0
  7 28  1  0  0  0  0
  8  9  2  0  0  0  0
  8 10  1  0  0  0  0
 10 11  1  0  0  0  0
 10 22  1  0  0  0  0
 11 12  1  0  0  0  0
 11 29  1  0  0  0  0
 11 30  1  0  0  0  0
 12 13  2  0  0  0  0
 12 14  1  0  0  0  0
 14 15  1  0  0  0  0
 14 31  1  0  0  0  0
 15 20  1  0  0  0  0
 15 16  1  0  0  0  0
 15 32  1  0  0  0  0
 16 17  1  0  0  0  0
 16 33  1  0  0  0  0
 16 34  1  0  0  0  0
 17 18  1  0  0  0  0
 17 35  1  0  0  0  0
 17 36  1  0  0  0  0
 18 19  1  0  0  0  0
 18 37  1  0  0  0  0
 18 38  1  0  0  0  0
 19 20  1  0  0  0  0
 19 39  1  0  0  0  0
 19 40  1  0  0  0  0
 20 21  1  0  0  0  0
 20 41  1  0  0  0  0
 21 42  1  0  0  0  0
 21 43  1  0  0  0  0
 21 44  1  0  0  0  0
 22 45  1  0  0  0  0
M  END
> <s_m_source_file>
AV-unprocessed.smi

> <i_m_source_file_index>
1844

> <i_lp_mmshare_version>
43012

> <i_f3d_flags>
0

> <s_epik_input>
W0NIM11bTkhdQyg9TyljMVtjSF1bY0hdYyg9TyluKFtjSF0xKVtDSDJdQyg9TylbTkhdW0NAQEhdMltDSDJdW0NIMl1bQ0gyXVtDSDJdW0NASF0yW0NIM10=

> <s_epik_cmdline>
J2VwaWtfcHl0aG9uJywgJy1waCcsICc3LjAnLCAnLXRuJywgJzgnLCAnLW1hJywgJzIwMCcsICctbWV0YWxfYmluZGluZycsICctaW1hZScsICc8aW5maWxlLm1hZT4nLCAnLW9tYWUnLCAnPG91dGZpbGUubWFlPic=

> <r_lp_tautomer_probability>
1

> <r_epik_Ionization_Penalty>
3.66612e-07

> <r_epik_Ionization_Penalty_Charging>
5.18929e-08

> <r_epik_Ionization_Penalty_Neutral>
3.14719e-07

> <r_epik_State_Penalty>
-0

> <r_epik_Charging_Adjusted_Penalty>
5.18929e-08

> <i_epik_Tot_Q>
0

> <i_epik_Tot_abs_Q>
0

> <r_epik_Metal_State_Penalty>
-0

> <b_epik_Metal_Only>
0

> <s_lp_Force_Field>
OPLS_2005

> <r_lp_Energy>
22.567

> <b_lp_Chiralities_Consistent>
1

> <s_lp_Variant>
AV-unprocessed.smi:1844-4

> <Gold.Version>
5.8.1

> <Gold.Id.Protein>
6NUR|6NUR_protein|mol2

> <Gold.PLP.Fitness>
44.8522

> <Gold.PLP.PLP>
-38.7973

> <Gold.PLP.part.hbond>
-3.9224

> <Gold.PLP.part.metal>
0.0000

> <Gold.PLP.part.buried>
-5.5060

> <Gold.PLP.part.nonpolar>
-30.6226

> <Gold.PLP.part.repulsive>
0.3037

> <Gold.PLP.ligand.clash>
0.0000

> <Gold.PLP.ligand.torsion>
0.9576

> <Gold.PLP.Chemscore.Hbond>
2.6400

> <Gold.PLP.Chemscore.CHOScore>
0.0000

> <Gold.PLP.Chemscore.Metal>
0.0000

> <Gold.Chemscore.Hbonds>
donor molecule, donor type, donor heavy atom, donor atom, acceptor molecule, acceptor atom, score
      L1  H     2    26       P1 10175  0.96
      P1  H  7989  7998       L1    13  1.00
      P1  H  8011  8017       L1     9  0.62

> <Gold.PLP.Chemscore.Internal.Correction>
0.0500

> <Gold.Rescore>
     Score         DG    S(hbond)    S(metal)    S(lipo)     H(rot)  DE(clash)    DE(int)     intcor
     17.19     -21.31       2.73        0.00      90.09       1.49       0.26       3.86       ----

> <Gold.Chemscore.Fitness>
17.1860

> <Gold.Chemscore.DG>
-21.3067

> <Gold.Chemscore.ZeroCoef>
-5.4800

> <Gold.Chemscore.Hbond>
2.7264

> <Gold.Chemscore.Metal>
0.0000

> <Gold.Chemscore.Lipo>
90.0948

> <Gold.Chemscore.Internal_Hbond>
0.0000

> <Gold.Chemscore.DEClash>
0.2600

> <Gold.Chemscore.DEInternal>
3.8607

> <Gold.Chemscore.Rot>
1.4923

> <Gold.Chemscore.Internal.Correction>
   9.000000E+99

> <Gold.Chemscore.Hbonds>
donor molecule, donor type, donor heavy atom, donor atom, acceptor molecule, acceptor atom, score
      L1  H     2    26       P1 10175  0.58
      P1  H  7989  7998       L1    13  0.96
      P1  H  8011  8017       L1     9  0.62

> <Gold.Chemscore.Hbond.Weighted>
-9.1060

> <Gold.Chemscore.Metal.Weighted>
-0.0000

> <Gold.Chemscore.Lipo.Weighted>
-10.5411

> <Gold.Chemscore.Internal_Hbond.Weighted>
0.0000

> <Gold.Chemscore.DEClash.Weighted>
0.2600

> <Gold.Chemscore.DEInternal.Weighted>
3.8607

> <Gold.Chemscore.Rot.Weighted>
3.8204

> <Gold.Chemscore.Internal.Correction.Weighted>
   9.000000E+99

> <Gold.Protein.RotatedTorsions>
[ 6907 6896 6895 6894 ] final -154.26 input  -60.11 | X-H torsion
[ 7974 7965 7964 7962 ] final   12.85 input  175.53 | X-H torsion
[ 8008 7997 7996 7995 ] final -124.03 input   59.86 | X-H torsion
[ 10167 10162 10161 10158 ] final -127.74 input  -65.29 | X-H torsion
[ 10718 10713 10712 10709 ] final  104.11 input   66.30 | X-H torsion
[ 10763 10752 10751 10750 ] final  156.63 input  -60.55 | X-H torsion
[ 11005 11000 10999 10996 ] final -109.57 input  -57.11 | X-H torsion

> <Gold.Protein.ActiveResidues>
 VAL166  LYS551  ARG553  GLY616  TRP617  ASP618  TYR619  PRO620  LYS621  CYS622 
 ASP623  PHE694  ASN695  SER759  ASP760  ASP761  ALA762  ILE779  LEU786  VAL792 
 PHE793  MET794  SER795  GLU796  ALA797  LYS798  CYS799  TRP800  GLU811  SER814 

> <Gold.Protein.RotatedAtoms>
  151.2548  133.4331  159.2612 H   0  0  0  0  0  0  0  0  0  0  0  0  # atno 6907 bound_to 6896
  151.0584  134.9720  159.8258 H   0  0  0  0  0  0  0  0  0  0  0  0  # atno 6908 bound_to 6896
  152.5394  134.2500  159.8947 H   0  0  0  0  0  0  0  0  0  0  0  0  # atno 6909 bound_to 6896
  146.2342  139.9275  142.8501 H   0  0  0  0  0  0  0  0  0  0  0  0  # atno 7974 bound_to 7965
  155.1901  140.0413  157.2899 H   0  0  0  0  0  0  0  0  0  0  0  0  # atno 8008 bound_to 7997
  154.6144  140.2485  155.7600 H   0  0  0  0  0  0  0  0  0  0  0  0  # atno 8009 bound_to 7997
  156.2398  140.2908  156.0422 H   0  0  0  0  0  0  0  0  0  0  0  0  # atno 8010 bound_to 7997
  139.9577  143.5985  152.2455 H   0  0  0  0  0  0  0  0  0  0  0  0  # atno 10167 bound_to 10162
  157.6751  131.0796  150.5657 H   0  0  0  0  0  0  0  0  0  0  0  0  # atno 10718 bound_to 10713
  154.1874  135.2796  155.3033 H   0  0  0  0  0  0  0  0  0  0  0  0  # atno 10763 bound_to 10752
  154.5955  135.5546  153.7325 H   0  0  0  0  0  0  0  0  0  0  0  0  # atno 10764 bound_to 10752
  153.0121  135.6379  154.2013 H   0  0  0  0  0  0  0  0  0  0  0  0  # atno 10765 bound_to 10752
  141.0840  133.9171  157.2226 H   0  0  0  0  0  0  0  0  0  0  0  0  # atno 11005 bound_to 11000
  145.2076  140.9882  143.4119 LP  0  0  0  0  0  0  0  0  0  0  0  0  # atno 17320 bound_to 7965
  144.9719  139.3872  143.6305 LP  0  0  0  0  0  0  0  0  0  0  0  0  # atno 17321 bound_to 7965
  139.6578  144.7662  151.2021 LP  0  0  0  0  0  0  0  0  0  0  0  0  # atno 17342 bound_to 10162
  140.7563  143.6057  150.8655 LP  0  0  0  0  0  0  0  0  0  0  0  0  # atno 17343 bound_to 10162
  156.5959  130.4341  149.5917 LP  0  0  0  0  0  0  0  0  0  0  0  0  # atno 17370 bound_to 10713
  156.2545  130.6926  151.1675 LP  0  0  0  0  0  0  0  0  0  0  0  0  # atno 17371 bound_to 10713
  139.9656  135.0142  156.9379 LP  0  0  0  0  0  0  0  0  0  0  0  0  # atno 17394 bound_to 11000
  140.5405  134.0725  155.7340 LP  0  0  0  0  0  0  0  0  0  0  0  0  # atno 17395 bound_to 11000

$$$$
