AV-unprocessed.smi:1830|AV-procd|sdf|7449|dock1
  -GOLD-   22720 9133D 1   1.00000     0.00000
 Structure written by MMmdl.
 54 57  0  0  0  0  0  0  0  0  3 V2000
  150.3898  136.8539  156.0990 O   0  0  0  0  0  0  0  0  0  0  0  0
  149.6570  137.1266  155.1490 C   0  0  0  0  0  0  0  0  0  0  0  0
  148.9369  136.2135  154.4830 N   0  0  0  0  0  0  0  0  0  0  0  0
  148.9312  134.7794  154.7580 C   0  0  0  0  0  0  0  0  0  0  0  0
  148.0099  133.9825  153.8127 C   0  0  1  0  0  0  0  0  0  0  0  0
  148.7521  133.3795  152.6010 C   0  0  0  0  0  0  0  0  0  0  0  0
  147.8716  132.5019  151.7954 N   0  3  2  0  0  0  0  0  0  0  0  0
  146.9561  133.1766  150.8487 C   0  0  0  0  0  0  0  0  0  0  0  0
  145.7190  132.2726  150.7272 C   0  0  0  0  0  0  0  0  0  0  0  0
  146.0191  131.0485  151.5993 C   0  0  0  0  0  0  0  0  0  0  0  0
  147.0774  131.5411  152.5876 C   0  0  2  0  0  0  0  0  0  0  0  0
  146.4492  132.2160  153.8277 C   0  0  0  0  0  0  0  0  0  0  0  0
  147.4409  132.9177  154.5646 O   0  0  0  0  0  0  0  0  0  0  0  0
  149.4523  138.3602  154.6586 N   0  0  0  0  0  0  0  0  0  0  0  0
  149.9754  139.5930  155.1421 C   0  0  0  0  0  0  0  0  0  0  0  0
  151.2927  139.6984  155.6575 C   0  0  0  0  0  0  0  0  0  0  0  0
  151.7786  140.9482  156.0873 C   0  0  0  0  0  0  0  0  0  0  0  0
  150.9450  142.0759  155.9848 C   0  0  0  0  0  0  0  0  0  0  0  0
  149.7025  141.9452  155.4756 N   0  3  0  0  0  0  0  0  0  0  0  0
  149.1816  140.7693  155.0458 C   0  0  0  0  0  0  0  0  0  0  0  0
  147.8594  140.7492  154.5517 N   0  0  0  0  0  0  0  0  0  0  0  0
  146.8345  140.9967  155.5628 C   0  0  0  0  0  0  0  0  0  0  0  0
  145.7320  141.8048  154.8749 C   0  0  0  0  0  0  0  0  0  0  0  0
  146.4761  142.5255  153.7574 C   0  0  0  0  0  0  0  0  0  0  0  0
  147.5217  141.4938  153.3390 C   0  0  0  0  0  0  0  0  0  0  0  0
  148.3624  136.5281  153.7145 H   0  0  0  0  0  0  0  0  0  0  0  0
  149.9559  134.4190  154.6636 H   0  0  0  0  0  0  0  0  0  0  0  0
  148.6410  134.6101  155.7961 H   0  0  0  0  0  0  0  0  0  0  0  0
  147.2085  134.6385  153.4697 H   0  0  0  0  0  0  0  0  0  0  0  0
  149.1726  134.1575  151.9626 H   0  0  0  0  0  0  0  0  0  0  0  0
  149.5899  132.7778  152.9551 H   0  0  0  0  0  0  0  0  0  0  0  0
  146.6632  134.1607  151.2167 H   0  0  0  0  0  0  0  0  0  0  0  0
  147.4540  133.3170  149.8891 H   0  0  0  0  0  0  0  0  0  0  0  0
  144.8399  132.7964  151.1046 H   0  0  0  0  0  0  0  0  0  0  0  0
  145.5136  131.9914  149.6939 H   0  0  0  0  0  0  0  0  0  0  0  0
  145.1303  130.6445  152.0854 H   0  0  0  0  0  0  0  0  0  0  0  0
  146.4422  130.2575  150.9785 H   0  0  0  0  0  0  0  0  0  0  0  0
  147.7213  130.7230  152.9133 H   0  0  0  0  0  0  0  0  0  0  0  0
  145.6487  132.9030  153.5479 H   0  0  0  0  0  0  0  0  0  0  0  0
  145.9985  131.4619  154.4731 H   0  0  0  0  0  0  0  0  0  0  0  0
  148.7618  138.4389  153.9261 H   0  0  0  0  0  0  0  0  0  0  0  0
  151.9476  138.8422  155.7152 H   0  0  0  0  0  0  0  0  0  0  0  0
  152.7796  141.0404  156.4832 H   0  0  0  0  0  0  0  0  0  0  0  0
  151.2326  143.0723  156.2881 H   0  0  0  0  0  0  0  0  0  0  0  0
  146.4431  140.0626  155.9670 H   0  0  0  0  0  0  0  0  0  0  0  0
  147.2556  141.5693  156.3913 H   0  0  0  0  0  0  0  0  0  0  0  0
  144.9897  141.1299  154.4464 H   0  0  0  0  0  0  0  0  0  0  0  0
  145.2171  142.4847  155.5542 H   0  0  0  0  0  0  0  0  0  0  0  0
  145.8262  142.8289  152.9359 H   0  0  0  0  0  0  0  0  0  0  0  0
  146.9669  143.4168  154.1509 H   0  0  0  0  0  0  0  0  0  0  0  0
  148.3691  141.9598  152.8370 H   0  0  0  0  0  0  0  0  0  0  0  0
  147.0844  140.7902  152.6298 H   0  0  0  0  0  0  0  0  0  0  0  0
  148.4771  131.9413  151.2127 H   0  0  0  0  0  0  0  0  0  0  0  0
  149.1206  142.7809  155.4131 H   0  0  0  0  0  0  0  0  0  0  0  0
  1  2  2  0  0  0  0
  2  3  1  0  0  0  0
  2 14  1  0  0  0  0
  3  4  1  0  0  0  0
  3 26  1  0  0  0  0
  4  5  1  0  0  0  0
  4 27  1  0  0  0  0
  4 28  1  0  0  0  0
  5 13  1  0  0  0  0
  5  6  1  0  0  0  0
  5 29  1  0  0  0  0
  6  7  1  0  0  0  0
  6 30  1  0  0  0  0
  6 31  1  0  0  0  0
  7 11  1  0  0  0  0
  7  8  1  0  0  0  0
  7 53  1  0  0  0  0
  8  9  1  0  0  0  0
  8 32  1  0  0  0  0
  8 33  1  0  0  0  0
  9 10  1  0  0  0  0
  9 34  1  0  0  0  0
  9 35  1  0  0  0  0
 10 11  1  0  0  0  0
 10 36  1  0  0  0  0
 10 37  1  0  0  0  0
 11 12  1  0  0  0  0
 11 38  1  0  0  0  0
 12 13  1  0  0  0  0
 12 39  1  0  0  0  0
 12 40  1  0  0  0  0
 14 15  1  0  0  0  0
 14 41  1  0  0  0  0
 15 20  1  0  0  0  0
 15 16  2  0  0  0  0
 16 17  1  0  0  0  0
 16 42  1  0  0  0  0
 17 18  2  0  0  0  0
 17 43  1  0  0  0  0
 18 19  1  0  0  0  0
 18 44  1  0  0  0  0
 19 20  2  0  0  0  0
 19 54  1  0  0  0  0
 20 21  1  0  0  0  0
 21 25  1  0  0  0  0
 21 22  1  0  0  0  0
 22 23  1  0  0  0  0
 22 45  1  0  0  0  0
 22 46  1  0  0  0  0
 23 24  1  0  0  0  0
 23 47  1  0  0  0  0
 23 48  1  0  0  0  0
 24 25  1  0  0  0  0
 24 49  1  0  0  0  0
 24 50  1  0  0  0  0
 25 51  1  0  0  0  0
 25 52  1  0  0  0  0
M  CHG  1   7   1
M  CHG  1  19   1
M  END
> <s_m_source_file>
AV-unprocessed.smi

> <i_m_source_file_index>
1830

> <i_lp_mmshare_version>
43012

> <i_f3d_flags>
0

> <s_epik_input>
W0NIMl0xW0NIMl1bQ0gyXVtDQEhdKE4xMilbQ0gyXU9bQ0BASF0oW0NIMl0yKVtDSDJdW05IXUMoPU8pW05IXWMzW2NIXVtjSF1bY0hdbmMzTjRbQ0gyXVtDSDJdW0NIMl1bQ0gyXTQ=

> <s_epik_cmdline>
J2VwaWtfcHl0aG9uJywgJy1waCcsICc3LjAnLCAnLXRuJywgJzgnLCAnLW1hJywgJzIwMCcsICctbWV0YWxfYmluZGluZycsICctaW1hZScsICc8aW5maWxlLm1hZT4nLCAnLW9tYWUnLCAnPG91dGZpbGUubWFlPic=

> <r_lp_tautomer_probability>
0.999994

> <r_epik_Ionization_Penalty>
1.29113

> <r_epik_Ionization_Penalty_Charging>
1.29111

> <r_epik_Ionization_Penalty_Neutral>
1.88144e-05

> <r_epik_State_Penalty>
1.32676

> <r_epik_Charging_Adjusted_Penalty>
2.61787

> <i_epik_Tot_Q>
2

> <i_epik_Tot_abs_Q>
2

> <r_epik_Metal_State_Penalty>
1.40425

> <b_epik_Metal_Only>
0

> <s_lp_Force_Field>
OPLS_2005

> <r_lp_Energy>
74.6229

> <b_lp_Chiralities_Consistent>
1

> <s_lp_Variant>
AV-unprocessed.smi:1830-18

> <Gold.Version>
5.8.1

> <Gold.Id.Protein>
6NUR|6NUR_protein|mol2

> <Gold.PLP.Fitness>
45.4060

> <Gold.PLP.PLP>
-37.1236

> <Gold.PLP.part.hbond>
-3.0000

> <Gold.PLP.part.metal>
0.0000

> <Gold.PLP.part.buried>
-6.0246

> <Gold.PLP.part.nonpolar>
-27.4529

> <Gold.PLP.part.repulsive>
0.3304

> <Gold.PLP.ligand.clash>
0.0000

> <Gold.PLP.ligand.torsion>
0.8213

> <Gold.PLP.Chemscore.Hbond>
3.2460

> <Gold.PLP.Chemscore.CHOScore>
0.0000

> <Gold.PLP.Chemscore.Metal>
0.0000

> <Gold.Chemscore.Hbonds>
donor molecule, donor type, donor heavy atom, donor atom, acceptor molecule, acceptor atom, score
      L1  H     3    26       P1  7948  0.38
      L1  H     7    53       P1 10747  0.94
      L1  H    19    54       P1  8028  2.00

> <Gold.PLP.Chemscore.Internal.Correction>
0.1872

> <Gold.Rescore>
     Score         DG    S(hbond)    S(metal)    S(lipo)     H(rot)  DE(clash)    DE(int)     intcor
     18.30     -20.29       2.15        0.00      96.49       1.43       0.14       1.86       ----

> <Gold.Chemscore.Fitness>
18.2976

> <Gold.Chemscore.DG>
-20.2945

> <Gold.Chemscore.ZeroCoef>
-5.4800

> <Gold.Chemscore.Hbond>
2.1499

> <Gold.Chemscore.Metal>
0.0000

> <Gold.Chemscore.Lipo>
96.4875

> <Gold.Chemscore.Internal_Hbond>
0.0000

> <Gold.Chemscore.DEClash>
0.1395

> <Gold.Chemscore.DEInternal>
1.8573

> <Gold.Chemscore.Rot>
1.4278

> <Gold.Chemscore.Internal.Correction>
   9.000000E+99

> <Gold.Chemscore.Hbonds>
donor molecule, donor type, donor heavy atom, donor atom, acceptor molecule, acceptor atom, score
      L1  H     3    26       P1  7948  0.37
      L1  H     7    53       P1 10747  0.90
      L1  H    19    54       P1  8028  0.94

> <Gold.Chemscore.Hbond.Weighted>
-7.1805

> <Gold.Chemscore.Metal.Weighted>
-0.0000

> <Gold.Chemscore.Lipo.Weighted>
-11.2890

> <Gold.Chemscore.Internal_Hbond.Weighted>
0.0000

> <Gold.Chemscore.DEClash.Weighted>
0.1395

> <Gold.Chemscore.DEInternal.Weighted>
1.8573

> <Gold.Chemscore.Rot.Weighted>
3.6551

> <Gold.Chemscore.Internal.Correction.Weighted>
   9.000000E+99

> <Gold.Protein.RotatedTorsions>
[ 6907 6896 6895 6894 ] final  -54.99 input  -60.11 | X-H torsion
[ 7974 7965 7964 7962 ] final -104.95 input  175.53 | X-H torsion
[ 8008 7997 7996 7995 ] final   23.54 input   59.86 | X-H torsion
[ 10167 10162 10161 10158 ] final  150.57 input  -65.29 | X-H torsion
[ 10718 10713 10712 10709 ] final   74.19 input   66.30 | X-H torsion
[ 10763 10752 10751 10750 ] final  -20.22 input  -60.55 | X-H torsion
[ 11005 11000 10999 10996 ] final  -18.52 input  -57.11 | X-H torsion

> <Gold.Protein.ActiveResidues>
 VAL166  LYS551  ARG553  GLY616  TRP617  ASP618  TYR619  PRO620  LYS621  CYS622 
 ASP623  PHE694  ASN695  SER759  ASP760  ASP761  ALA762  ILE779  LEU786  VAL792 
 PHE793  MET794  SER795  GLU796  ALA797  LYS798  CYS799  TRP800  GLU811  SER814 

> <Gold.Protein.RotatedAtoms>
  150.8290  134.7534  159.6836 H   0  0  0  0  0  0  0  0  0  0  0  0  # atno 6907 bound_to 6896
  152.4397  134.5612  159.9904 H   0  0  0  0  0  0  0  0  0  0  0  0  # atno 6908 bound_to 6896
  151.5778  133.3344  159.3038 H   0  0  0  0  0  0  0  0  0  0  0  0  # atno 6909 bound_to 6896
  145.2367  140.9190  143.3173 H   0  0  0  0  0  0  0  0  0  0  0  0  # atno 7974 bound_to 7965
  154.9825  140.3104  155.4940 H   0  0  0  0  0  0  0  0  0  0  0  0  # atno 8008 bound_to 7997
  156.2951  140.2264  156.4865 H   0  0  0  0  0  0  0  0  0  0  0  0  # atno 8009 bound_to 7997
  154.7776  140.0448  157.1090 H   0  0  0  0  0  0  0  0  0  0  0  0  # atno 8010 bound_to 7997
  139.4849  144.5511  151.7399 H   0  0  0  0  0  0  0  0  0  0  0  0  # atno 10167 bound_to 10162
  157.6581  130.9666  150.1176 H   0  0  0  0  0  0  0  0  0  0  0  0  # atno 10718 bound_to 10713
  153.6170  135.6994  153.5325 H   0  0  0  0  0  0  0  0  0  0  0  0  # atno 10763 bound_to 10752
  153.2969  135.4140  155.1217 H   0  0  0  0  0  0  0  0  0  0  0  0  # atno 10764 bound_to 10752
  154.8551  135.3639  154.5710 H   0  0  0  0  0  0  0  0  0  0  0  0  # atno 10765 bound_to 10752
  140.8276  133.8021  155.9724 H   0  0  0  0  0  0  0  0  0  0  0  0  # atno 11005 bound_to 11000
  144.9627  139.3963  143.6348 LP  0  0  0  0  0  0  0  0  0  0  0  0  # atno 17320 bound_to 7965
  146.3339  139.8687  142.8843 LP  0  0  0  0  0  0  0  0  0  0  0  0  # atno 17321 bound_to 7965
  140.5065  144.1090  150.5984 LP  0  0  0  0  0  0  0  0  0  0  0  0  # atno 17342 bound_to 10162
  140.4001  143.2708  151.9958 LP  0  0  0  0  0  0  0  0  0  0  0  0  # atno 17343 bound_to 10162
  156.2056  130.3663  149.8733 LP  0  0  0  0  0  0  0  0  0  0  0  0  # atno 17370 bound_to 10713
  156.6626  130.8788  151.3549 LP  0  0  0  0  0  0  0  0  0  0  0  0  # atno 17371 bound_to 10713
  140.9033  134.2351  157.5029 LP  0  0  0  0  0  0  0  0  0  0  0  0  # atno 17394 bound_to 11000
  139.8706  134.9716  156.4744 LP  0  0  0  0  0  0  0  0  0  0  0  0  # atno 17395 bound_to 11000

$$$$
