AV-unprocessed.smi:1978|AV-procd|sdf|8006|dock4
  -GOLD-   2272010193D 1   1.00000     0.00000
 Structure written by MMmdl.
 44 45  0  0  0  0  0  0  0  0  3 V2000
  146.6327  133.3124  162.3234 C   0  0  0  0  0  0  0  0  0  0  0  0
  147.1825  134.6192  161.8631 C   0  0  0  0  0  0  0  0  0  0  0  0
  147.2146  135.2335  160.6435 C   0  0  0  0  0  0  0  0  0  0  0  0
  147.8817  136.4594  160.9147 C   0  0  0  0  0  0  0  0  0  0  0  0
  148.1699  137.4156  160.0184 N   0  5  0  0  0  0  0  0  0  0  0  0
  149.0593  137.1753  159.0289 C   0  0  0  0  0  0  0  0  0  0  0  0
  149.5575  136.0848  158.7398 O   0  0  0  0  0  0  0  0  0  0  0  0
  149.4001  138.2700  158.3339 N   0  0  0  0  0  0  0  0  0  0  0  0
  150.3582  138.3160  157.2329 C   0  0  0  0  0  0  0  0  0  0  0  0
  150.6219  139.7583  156.7105 C   0  0  2  0  0  0  0  0  0  0  0  0
  150.8356  139.7131  155.1747 C   0  0  0  0  0  0  0  0  0  0  0  0
  151.7661  140.4107  157.4378 N   0  3  2  0  0  0  0  0  0  0  0  0
  152.0192  139.8485  158.8001 C   0  0  0  0  0  0  0  0  0  0  0  0
  153.3369  140.3710  159.3962 C   0  0  0  0  0  0  0  0  0  0  0  0
  153.3620  141.8999  159.4465 C   0  0  0  0  0  0  0  0  0  0  0  0
  153.0709  142.4632  158.0512 C   0  0  0  0  0  0  0  0  0  0  0  0
  151.7548  141.9126  157.4620 C   0  0  2  0  0  0  0  0  0  0  0  0
  150.5139  142.5084  158.1660 C   0  0  0  0  0  0  0  0  0  0  0  0
  148.2382  136.5712  162.1831 N   0  0  0  0  0  0  0  0  0  0  0  0
  147.7884  135.3974  162.7997 O   0  0  0  0  0  0  0  0  0  0  0  0
  147.2339  132.4866  161.9432 H   0  0  0  0  0  0  0  0  0  0  0  0
  145.6106  133.1780  161.9693 H   0  0  0  0  0  0  0  0  0  0  0  0
  146.6227  133.2510  163.4119 H   0  0  0  0  0  0  0  0  0  0  0  0
  146.8216  134.8666  159.7074 H   0  0  0  0  0  0  0  0  0  0  0  0
  148.9632  139.1409  158.5991 H   0  0  0  0  0  0  0  0  0  0  0  0
  151.2600  137.8234  157.5903 H   0  0  0  0  0  0  0  0  0  0  0  0
  149.9704  137.6948  156.4250 H   0  0  0  0  0  0  0  0  0  0  0  0
  149.7326  140.3601  156.9016 H   0  0  0  0  0  0  0  0  0  0  0  0
  150.0223  139.1988  154.6634 H   0  0  0  0  0  0  0  0  0  0  0  0
  151.7597  139.1937  154.9193 H   0  0  0  0  0  0  0  0  0  0  0  0
  150.8683  140.7036  154.7239 H   0  0  0  0  0  0  0  0  0  0  0  0
  151.1828  140.0752  159.4616 H   0  0  0  0  0  0  0  0  0  0  0  0
  152.1025  138.7658  158.7817 H   0  0  0  0  0  0  0  0  0  0  0  0
  153.4786  139.9649  160.3983 H   0  0  0  0  0  0  0  0  0  0  0  0
  154.1745  140.0114  158.7971 H   0  0  0  0  0  0  0  0  0  0  0  0
  152.6257  142.2627  160.1642 H   0  0  0  0  0  0  0  0  0  0  0  0
  154.3336  142.2484  159.7977 H   0  0  0  0  0  0  0  0  0  0  0  0
  153.0427  143.5530  158.0879 H   0  0  0  0  0  0  0  0  0  0  0  0
  153.8959  142.2060  157.3852 H   0  0  0  0  0  0  0  0  0  0  0  0
  151.7507  142.2736  156.4348 H   0  0  0  0  0  0  0  0  0  0  0  0
  150.5348  143.5974  158.1220 H   0  0  0  0  0  0  0  0  0  0  0  0
  150.4577  142.2317  159.2180 H   0  0  0  0  0  0  0  0  0  0  0  0
  149.5829  142.1921  157.6970 H   0  0  0  0  0  0  0  0  0  0  0  0
  152.5828  140.1697  156.8949 H   0  0  0  0  0  0  0  0  0  0  0  0
  1  2  1  0  0  0  0
  1 21  1  0  0  0  0
  1 22  1  0  0  0  0
  1 23  1  0  0  0  0
  2 20  1  0  0  0  0
  2  3  2  0  0  0  0
  3  4  1  0  0  0  0
  3 24  1  0  0  0  0
  4  5  1  0  0  0  0
  4 19  2  0  0  0  0
  5  6  1  0  0  0  0
  6  7  2  0  0  0  0
  6  8  1  0  0  0  0
  8  9  1  0  0  0  0
  8 25  1  0  0  0  0
  9 10  1  0  0  0  0
  9 26  1  0  0  0  0
  9 27  1  0  0  0  0
 10 11  1  0  0  0  0
 10 12  1  0  0  0  0
 10 28  1  0  0  0  0
 11 29  1  0  0  0  0
 11 30  1  0  0  0  0
 11 31  1  0  0  0  0
 12 17  1  0  0  0  0
 12 13  1  0  0  0  0
 12 44  1  0  0  0  0
 13 14  1  0  0  0  0
 13 32  1  0  0  0  0
 13 33  1  0  0  0  0
 14 15  1  0  0  0  0
 14 34  1  0  0  0  0
 14 35  1  0  0  0  0
 15 16  1  0  0  0  0
 15 36  1  0  0  0  0
 15 37  1  0  0  0  0
 16 17  1  0  0  0  0
 16 38  1  0  0  0  0
 16 39  1  0  0  0  0
 17 18  1  0  0  0  0
 17 40  1  0  0  0  0
 18 41  1  0  0  0  0
 18 42  1  0  0  0  0
 18 43  1  0  0  0  0
 19 20  1  0  0  0  0
M  CHG  1   5  -1
M  CHG  1  12   1
M  END
> <s_m_source_file>
AV-unprocessed.smi

> <i_m_source_file_index>
1978

> <i_lp_mmshare_version>
43012

> <i_f3d_flags>
0

> <s_epik_input>
W0NIM11jMVtjSF1jKG5vMSlbTkhdQyg9TylbTkhdW0NIMl1bQ0BIXShbQ0gzXSlOMltDSDJdW0NIMl1bQ0gyXVtDSDJdW0NASF0yW0NIM10=

> <s_epik_cmdline>
J2VwaWtfcHl0aG9uJywgJy1waCcsICc3LjAnLCAnLXRuJywgJzgnLCAnLW1hJywgJzIwMCcsICctbWV0YWxfYmluZGluZycsICctaW1hZScsICc8aW5maWxlLm1hZT4nLCAnLW9tYWUnLCAnPG91dGZpbGUubWFlPic=

> <r_epik_Ionization_Penalty>
6.22372

> <r_epik_Ionization_Penalty_Charging>
6.22362

> <r_epik_Ionization_Penalty_Neutral>
9.65074e-05

> <r_epik_State_Penalty>
6.22363

> <r_epik_Charging_Adjusted_Penalty>
12.4472

> <i_epik_Tot_Q>
0

> <i_epik_Tot_abs_Q>
2

> <r_epik_Metal_State_Penalty>
2.16675

> <b_epik_Metal_Only>
1

> <s_lp_Force_Field>
OPLS_2005

> <r_lp_Energy>
13.4454

> <b_lp_Chiralities_Consistent>
1

> <s_lp_Variant>
AV-unprocessed.smi:1978-15

> <Gold.Version>
5.8.1

> <Gold.Id.Protein>
6NUR|6NUR_protein|mol2

> <Gold.PLP.Fitness>
42.3268

> <Gold.PLP.PLP>
-37.8845

> <Gold.PLP.part.hbond>
-4.0000

> <Gold.PLP.part.metal>
0.0000

> <Gold.PLP.part.buried>
-4.1329

> <Gold.PLP.part.nonpolar>
-30.6655

> <Gold.PLP.part.repulsive>
0.2561

> <Gold.PLP.ligand.clash>
0.0000

> <Gold.PLP.ligand.torsion>
1.7984

> <Gold.PLP.Chemscore.Hbond>
2.6206

> <Gold.PLP.Chemscore.CHOScore>
0.0000

> <Gold.PLP.Chemscore.Metal>
0.0000

> <Gold.Chemscore.Hbonds>
donor molecule, donor type, donor heavy atom, donor atom, acceptor molecule, acceptor atom, score
      P1  H  6896  6909       L1     7  1.00
      P1  H  6931  6943       L1    19  0.70
      P1  H  6934  6947       L1     5  1.04

> <Gold.PLP.Chemscore.Internal.Correction>
0.1772

> <Gold.Rescore>
     Score         DG    S(hbond)    S(metal)    S(lipo)     H(rot)  DE(clash)    DE(int)     intcor
     14.40     -16.26       1.27        0.00      89.05       1.52       0.10       1.76       ----

> <Gold.Chemscore.Fitness>
14.4028

> <Gold.Chemscore.DG>
-16.2599

> <Gold.Chemscore.ZeroCoef>
-5.4800

> <Gold.Chemscore.Hbond>
1.2724

> <Gold.Chemscore.Metal>
0.0000

> <Gold.Chemscore.Lipo>
89.0501

> <Gold.Chemscore.Internal_Hbond>
0.0000

> <Gold.Chemscore.DEClash>
0.0982

> <Gold.Chemscore.DEInternal>
1.7588

> <Gold.Chemscore.Rot>
1.5190

> <Gold.Chemscore.Internal.Correction>
   9.000000E+99

> <Gold.Chemscore.Hbonds>
donor molecule, donor type, donor heavy atom, donor atom, acceptor molecule, acceptor atom, score
      P1  H  6896  6909       L1     7  0.95
      P1  H  6931  6943       L1    19  0.07
      P1  H  6934  6947       L1     5  0.13

> <Gold.Chemscore.Hbond.Weighted>
-4.2497

> <Gold.Chemscore.Metal.Weighted>
-0.0000

> <Gold.Chemscore.Lipo.Weighted>
-10.4189

> <Gold.Chemscore.Internal_Hbond.Weighted>
0.0000

> <Gold.Chemscore.DEClash.Weighted>
0.0982

> <Gold.Chemscore.DEInternal.Weighted>
1.7588

> <Gold.Chemscore.Rot.Weighted>
3.8886

> <Gold.Chemscore.Internal.Correction.Weighted>
   9.000000E+99

> <Gold.Protein.RotatedTorsions>
[ 6907 6896 6895 6894 ] final   70.34 input  -60.11 | X-H torsion
[ 7974 7965 7964 7962 ] final -150.19 input  175.53 | X-H torsion
[ 8008 7997 7996 7995 ] final -162.55 input   59.86 | X-H torsion
[ 10167 10162 10161 10158 ] final -106.43 input  -65.29 | X-H torsion
[ 10718 10713 10712 10709 ] final -120.97 input   66.30 | X-H torsion
[ 10763 10752 10751 10750 ] final  142.86 input  -60.55 | X-H torsion
[ 11005 11000 10999 10996 ] final  126.00 input  -57.11 | X-H torsion

> <Gold.Protein.ActiveResidues>
 VAL166  LYS551  ARG553  GLY616  TRP617  ASP618  TYR619  PRO620  LYS621  CYS622 
 ASP623  PHE694  ASN695  SER759  ASP760  ASP761  ALA762  ILE779  LEU786  VAL792 
 PHE793  MET794  SER795  GLU796  ALA797  LYS798  CYS799  TRP800  GLU811  SER814 

> <Gold.Protein.RotatedAtoms>
  152.4743  134.4883  159.9686 H   0  0  0  0  0  0  0  0  0  0  0  0  # atno 6907 bound_to 6896
  151.4902  133.3520  159.2860 H   0  0  0  0  0  0  0  0  0  0  0  0  # atno 6908 bound_to 6896
  150.8772  134.8184  159.7260 H   0  0  0  0  0  0  0  0  0  0  0  0  # atno 6909 bound_to 6896
  144.7922  140.4964  143.5765 H   0  0  0  0  0  0  0  0  0  0  0  0  # atno 7974 bound_to 7965
  155.8084  140.0902  157.1917 H   0  0  0  0  0  0  0  0  0  0  0  0  # atno 8008 bound_to 7997
  154.3980  140.1459  156.3417 H   0  0  0  0  0  0  0  0  0  0  0  0  # atno 8009 bound_to 7997
  155.8390  140.3439  155.5622 H   0  0  0  0  0  0  0  0  0  0  0  0  # atno 8010 bound_to 7997
  140.1878  143.3915  152.1230 H   0  0  0  0  0  0  0  0  0  0  0  0  # atno 10167 bound_to 10162
  156.1300  130.6388  150.9606 H   0  0  0  0  0  0  0  0  0  0  0  0  # atno 10718 bound_to 10713
  153.9628  135.2958  155.3432 H   0  0  0  0  0  0  0  0  0  0  0  0  # atno 10763 bound_to 10752
  154.7365  135.5044  153.9054 H   0  0  0  0  0  0  0  0  0  0  0  0  # atno 10764 bound_to 10752
  153.0938  135.6715  153.9913 H   0  0  0  0  0  0  0  0  0  0  0  0  # atno 10765 bound_to 10752
  139.9434  134.9633  156.8641 H   0  0  0  0  0  0  0  0  0  0  0  0  # atno 11005 bound_to 11000
  145.5765  139.1486  143.3259 LP  0  0  0  0  0  0  0  0  0  0  0  0  # atno 17320 bound_to 7965
  146.2178  140.5896  142.9031 LP  0  0  0  0  0  0  0  0  0  0  0  0  # atno 17321 bound_to 7965
  139.5268  144.7112  151.5199 LP  0  0  0  0  0  0  0  0  0  0  0  0  # atno 17342 bound_to 10162
  140.6476  143.8763  150.6753 LP  0  0  0  0  0  0  0  0  0  0  0  0  # atno 17343 bound_to 10162
  157.6479  131.0901  150.8114 LP  0  0  0  0  0  0  0  0  0  0  0  0  # atno 17370 bound_to 10713
  156.8200  130.4981  149.5344 LP  0  0  0  0  0  0  0  0  0  0  0  0  # atno 17371 bound_to 10713
  140.5895  134.0275  155.7494 LP  0  0  0  0  0  0  0  0  0  0  0  0  # atno 17394 bound_to 11000
  141.1076  133.9668  157.2968 LP  0  0  0  0  0  0  0  0  0  0  0  0  # atno 17395 bound_to 11000

$$$$
