#       Name:                AV-unprocessed.smi:3303
#       Creating user name   scv26
#       Creation time:       Fri Mar 27 19:02:15 2020


#       File generated by GOLD software.
#

@<TRIPOS>MOLECULE
AV-unprocessed.smi:3303
    46    47     1
SMALL
NO_CHARGES


@<TRIPOS>ATOM
      1 ****        -0.4580   0.2395  -1.8078 C.3            1 S1                 0.0000
      2 ****        -0.9287  -0.4816  -0.5321 C.3            1 S1                 0.0000
      3 ****        -2.4641  -0.6369  -0.5485 C.3            1 S1                 0.0000
      4 ****        -2.9604  -1.3185   0.6733 N.4            1 S1                 1.0000
      5 ****        -4.3954  -1.6735   0.5916 C.3            1 S1                 0.0000
      6 ****        -2.5743  -0.6249   1.9344 C.3            1 S1                 0.0000
      7 ****        -3.2998   0.7208   2.1520 C.3            1 S1                 0.0000
      8 ****        -1.0424  -0.4808   1.9992 C.3            1 S1                 0.0000
      9 ****        -0.4685   0.2341   0.7613 C.3            1 S1                 0.0000
     10 ****         0.9842   0.1823   0.8646 N.3            1 S1                 0.0000
     11 ****         1.5824   1.5014   0.7139 C.3            1 S1                 0.0000
     12 ****         3.1159   1.4058   0.6432 C.3            1 S1                 0.0000
     13 ****         3.6130   0.7072  -0.6122 C.ar           1 S1                 0.0000
     14 ****         3.9041   1.4507  -1.7759 C.ar           1 S1                 0.0000
     15 ****         4.3413   0.7600  -2.9227 C.ar           1 S1                 0.0000
     16 ****         4.4674  -0.6412  -2.8637 C.ar           1 S1                 0.0000
     17 ****         4.1511  -1.2918  -1.6546 C.ar           1 S1                 0.0000
     18 ****         3.7321  -0.6389  -0.5492 N.ar           1 S1                 0.0000
     19 ****        -0.8225   1.2666  -1.8403 H              1 S1                 0.0000
     20 ****        -0.8185  -0.2695  -2.7020 H              1 S1                 0.0000
     21 ****         0.6300   0.2692  -1.8740 H              1 S1                 0.0000
     22 ****        -0.4978  -1.4844  -0.5418 H              1 S1                 0.0000
     23 ****        -2.9481   0.3341  -0.6570 H              1 S1                 0.0000
     24 ****        -2.7552  -1.2239  -1.4208 H              1 S1                 0.0000
     25 ****        -5.0195  -0.7906   0.4516 H              1 S1                 0.0000
     26 ****        -4.7206  -2.1874   1.4967 H              1 S1                 0.0000
     27 ****        -4.5716  -2.3434  -0.2504 H              1 S1                 0.0000
     28 ****        -2.8659  -1.2789   2.7574 H              1 S1                 0.0000
     29 ****        -2.9823   1.1799   3.0887 H              1 S1                 0.0000
     30 ****        -4.3803   0.5935   2.2153 H              1 S1                 0.0000
     31 ****        -3.0955   1.4378   1.3576 H              1 S1                 0.0000
     32 ****        -0.7554   0.0498   2.9082 H              1 S1                 0.0000
     33 ****        -0.6027  -1.4766   2.0801 H              1 S1                 0.0000
     34 ****        -0.8191   1.2675   0.7560 H              1 S1                 0.0000
     35 ****         1.2613  -0.2143   1.7514 H              1 S1                 0.0000
     36 ****         1.2048   1.9898  -0.1851 H              1 S1                 0.0000
     37 ****         1.2885   2.1179   1.5641 H              1 S1                 0.0000
     38 ****         3.5402   2.4100   0.6717 H              1 S1                 0.0000
     39 ****         3.5035   0.8923   1.5246 H              1 S1                 0.0000
     40 ****         3.7911   2.5248  -1.7925 H              1 S1                 0.0000
     41 ****         4.5735   1.2951  -3.8315 H              1 S1                 0.0000
     42 ****         4.7982  -1.2038  -3.7240 H              1 S1                 0.0000
     43 ****         4.2352  -2.3653  -1.5735 H              1 S1                 0.0000
     44 ****        -2.4717  -2.2023   0.7012 H              1 S1                 0.0000
     45 ****         1.3141  -0.3984   0.1203 LP             1 S1                 0.0000
     46 ****         3.5162  -1.1359   0.2913 LP             1 S1                 0.0000
@<TRIPOS>BOND
    1    1    2 1     
    2    1   19 1     
    3    1   20 1     
    4    1   21 1     
    5    2    9 1     
    6    2    3 1     
    7    2   22 1     
    8    3    4 1     
    9    3   23 1     
   10    3   24 1     
   11    4    5 1     
   12    4    6 1     
   13    4   44 1     
   14    5   25 1     
   15    5   26 1     
   16    5   27 1     
   17    6    7 1     
   18    6    8 1     
   19    6   28 1     
   20    7   29 1     
   21    7   30 1     
   22    7   31 1     
   23    8    9 1     
   24    8   32 1     
   25    8   33 1     
   26    9   10 1     
   27    9   34 1     
   28   10   11 1     
   29   10   35 1     
   30   11   12 1     
   31   11   36 1     
   32   11   37 1     
   33   12   13 1     
   34   12   38 1     
   35   12   39 1     
   36   13   18 ar    
   37   13   14 ar    
   38   14   15 ar    
   39   14   40 1     
   40   15   16 ar    
   41   15   41 1     
   42   16   17 ar    
   43   16   42 1     
   44   17   18 ar    
   45   17   43 1     
   46   10   45 1     
   47   18   46 1     
@<TRIPOS>SUBSTRUCTURE
      1 S1             1
@<TRIPOS>SET
LONE_PAIRS      STATIC     ATOMS    <user>   **** ""
2 45 46
DONOR_HYDROGENS      STATIC     ATOMS    <user>   **** ""
2 44 35
ATOM$BLUE        STATIC     ATOMS    COLORGROUP SYSTEM
2 45 46
ATOM$RED        STATIC     ATOMS    COLORGROUP SYSTEM
2 44 35
