AV-unprocessed.smi:3056|AV-procd|sdf|11658|dock3
  -GOLD-   2272017 63D 1   1.00000     0.00000
 Structure written by MMmdl.
 47 48  0  0  0  0  0  0  0  0  1 V2000
  150.2900  132.2398  155.1569 C   0  0  0  0  0  0  0  0  0  0  0  0
  149.1466  132.8300  154.3832 C   0  0  0  0  0  0  0  0  0  0  0  0
  148.4406  134.0368  154.6494 C   0  0  0  0  0  0  0  0  0  0  0  0
  147.4836  134.2764  153.7686 N   0  0  0  0  0  0  0  0  0  0  0  0
  147.5347  133.2305  152.9124 N   0  0  0  0  0  0  0  0  0  0  0  0
  146.6296  133.1550  151.7673 C   0  0  1  0  0  0  0  0  0  0  0  0
  145.9871  131.7611  151.6229 C   0  0  0  0  0  0  0  0  0  0  0  0
  145.5954  134.3130  151.7198 C   0  0  2  0  0  0  0  0  0  0  0  0
  144.5569  134.1269  150.5943 C   0  0  0  0  0  0  0  0  0  0  0  0
  146.2845  135.5909  151.5555 N   0  0  0  0  0  0  0  0  0  0  0  0
  145.4420  136.7477  151.8845 C   0  0  0  0  0  0  0  0  0  0  0  0
  146.2609  138.0425  151.9337 C   0  0  0  0  0  0  0  0  0  0  0  0
  146.8102  138.4119  150.8955 O   0  0  0  0  0  0  0  0  0  0  0  0
  146.3621  138.7337  153.0956 N   0  0  0  0  0  0  0  0  0  0  0  0
  145.7816  138.3539  154.3875 C   0  0  0  0  0  0  0  0  0  0  0  0
  146.9306  138.0920  155.3760 C   0  0  0  0  0  0  0  0  0  0  0  0
  147.7499  139.2544  155.4794 O   0  0  0  0  0  0  0  0  0  0  0  0
  148.3100  139.6655  154.2333 C   0  0  2  0  0  0  0  0  0  0  0  0
  149.1820  140.9004  154.4839 C   0  0  0  0  0  0  0  0  0  0  0  0
  147.1690  139.9490  153.2355 C   0  0  0  0  0  0  0  0  0  0  0  0
  148.5360  132.3471  153.2609 C   0  0  0  0  0  0  0  0  0  0  0  0
  150.8401  133.0016  155.7098 H   0  0  0  0  0  0  0  0  0  0  0  0
  151.0049  131.7400  154.5030 H   0  0  0  0  0  0  0  0  0  0  0  0
  149.9453  131.5018  155.8811 H   0  0  0  0  0  0  0  0  0  0  0  0
  148.5969  134.7437  155.4507 H   0  0  0  0  0  0  0  0  0  0  0  0
  147.2611  133.2758  150.8858 H   0  0  0  0  0  0  0  0  0  0  0  0
  145.3976  131.6968  150.7082 H   0  0  0  0  0  0  0  0  0  0  0  0
  145.3263  131.5247  152.4573 H   0  0  0  0  0  0  0  0  0  0  0  0
  146.7500  130.9837  151.5762 H   0  0  0  0  0  0  0  0  0  0  0  0
  145.0737  134.3154  152.6783 H   0  0  0  0  0  0  0  0  0  0  0  0
  144.1096  133.1337  150.6414 H   0  0  0  0  0  0  0  0  0  0  0  0
  145.0065  134.2398  149.6070 H   0  0  0  0  0  0  0  0  0  0  0  0
  143.7404  134.8443  150.6680 H   0  0  0  0  0  0  0  0  0  0  0  0
  147.1188  135.5820  152.1252 H   0  0  0  0  0  0  0  0  0  0  0  0
  144.6260  136.8637  151.1723 H   0  0  0  0  0  0  0  0  0  0  0  0
  144.9783  136.5874  152.8592 H   0  0  0  0  0  0  0  0  0  0  0  0
  145.1535  139.1684  154.7507 H   0  0  0  0  0  0  0  0  0  0  0  0
  145.1343  137.4804  154.3436 H   0  0  0  0  0  0  0  0  0  0  0  0
  146.5325  137.8526  156.3621 H   0  0  0  0  0  0  0  0  0  0  0  0
  147.5309  137.2384  155.0570 H   0  0  0  0  0  0  0  0  0  0  0  0
  148.9432  138.8643  153.8476 H   0  0  0  0  0  0  0  0  0  0  0  0
  149.6470  141.2462  153.5604 H   0  0  0  0  0  0  0  0  0  0  0  0
  149.9792  140.6767  155.1931 H   0  0  0  0  0  0  0  0  0  0  0  0
  148.5939  141.7230  154.8916 H   0  0  0  0  0  0  0  0  0  0  0  0
  147.5846  140.2917  152.2870 H   0  0  0  0  0  0  0  0  0  0  0  0
  146.5375  140.7612  153.5988 H   0  0  0  0  0  0  0  0  0  0  0  0
  148.7319  131.4556  152.6834 H   0  0  0  0  0  0  0  0  0  0  0  0
  1  2  1  0  0  0  0
  1 22  1  0  0  0  0
  1 23  1  0  0  0  0
  1 24  1  0  0  0  0
  2 21  2  0  0  0  0
  2  3  1  0  0  0  0
  3  4  2  0  0  0  0
  3 25  1  0  0  0  0
  4  5  1  0  0  0  0
  5  6  1  0  0  0  0
  5 21  1  0  0  0  0
  6  7  1  0  0  0  0
  6  8  1  0  0  0  0
  6 26  1  0  0  0  0
  7 27  1  0  0  0  0
  7 28  1  0  0  0  0
  7 29  1  0  0  0  0
  8  9  1  0  0  0  0
  8 10  1  0  0  0  0
  8 30  1  0  0  0  0
  9 31  1  0  0  0  0
  9 32  1  0  0  0  0
  9 33  1  0  0  0  0
 10 11  1  0  0  0  0
 10 34  1  0  0  0  0
 11 12  1  0  0  0  0
 11 35  1  0  0  0  0
 11 36  1  0  0  0  0
 12 13  2  0  0  0  0
 12 14  1  0  0  0  0
 14 20  1  0  0  0  0
 14 15  1  0  0  0  0
 15 16  1  0  0  0  0
 15 37  1  0  0  0  0
 15 38  1  0  0  0  0
 16 17  1  0  0  0  0
 16 39  1  0  0  0  0
 16 40  1  0  0  0  0
 17 18  1  0  0  0  0
 18 19  1  0  0  0  0
 18 20  1  0  0  0  0
 18 41  1  0  0  0  0
 19 42  1  0  0  0  0
 19 43  1  0  0  0  0
 19 44  1  0  0  0  0
 20 45  1  0  0  0  0
 20 46  1  0  0  0  0
 21 47  1  0  0  0  0
M  END
> <s_m_source_file>
AV-unprocessed.smi

> <i_m_source_file_index>
3056

> <i_lp_mmshare_version>
43012

> <i_f3d_flags>
0

> <s_epik_input>
W0NIM11jMVtjSF1ubihbY0hdMSlbQ0BIXShbQ0gzXSlbQ0BIXShbQ0gzXSlbTkhdW0NIMl1DKD1PKU4yW0NIMl1bQ0gyXU9bQ0BASF0oW0NIM10pW0NIMl0y

> <s_epik_cmdline>
J2VwaWtfcHl0aG9uJywgJy1waCcsICc3LjAnLCAnLXRuJywgJzgnLCAnLW1hJywgJzIwMCcsICctbWV0YWxfYmluZGluZycsICctaW1hZScsICc8aW5maWxlLm1hZT4nLCAnLW9tYWUnLCAnPG91dGZpbGUubWFlPic=

> <r_lp_tautomer_probability>
1

> <r_epik_Ionization_Penalty>
0.667689

> <r_epik_Ionization_Penalty_Charging>
0

> <r_epik_Ionization_Penalty_Neutral>
0.667689

> <r_epik_State_Penalty>
0.684601

> <r_epik_Charging_Adjusted_Penalty>
0.684601

> <i_epik_Tot_Q>
0

> <i_epik_Tot_abs_Q>
0

> <r_epik_Metal_State_Penalty>
0.681448

> <b_epik_Metal_Only>
0

> <s_lp_Force_Field>
OPLS_2005

> <r_lp_Energy>
30.4655

> <b_lp_Chiralities_Consistent>
1

> <s_lp_Variant>
AV-unprocessed.smi:3056-14

> <Gold.Version>
5.8.1

> <Gold.Id.Protein>
6NUR|6NUR_protein|mol2

> <Gold.PLP.Fitness>
43.6324

> <Gold.PLP.PLP>
-36.0977

> <Gold.PLP.part.hbond>
-2.0000

> <Gold.PLP.part.metal>
0.0000

> <Gold.PLP.part.buried>
-2.5310

> <Gold.PLP.part.nonpolar>
-33.6401

> <Gold.PLP.part.repulsive>
1.5990

> <Gold.PLP.ligand.clash>
0.0000

> <Gold.PLP.ligand.torsion>
0.4014

> <Gold.PLP.Chemscore.Hbond>
1.7040

> <Gold.PLP.Chemscore.CHOScore>
1.0000

> <Gold.PLP.Chemscore.Metal>
0.0000

> <Gold.Chemscore.Hbonds>
donor molecule, donor type, donor heavy atom, donor atom, acceptor molecule, acceptor atom, score
      L1  H    10    34       P1  7948  0.66
      P1  H  7954  7966       L1    13  1.00
      L1  C    21    47       P1 10747  1.00

> <Gold.PLP.Chemscore.Internal.Correction>
0.2255

> <Gold.Rescore>
     Score         DG    S(hbond)    S(metal)    S(lipo)     H(rot)  DE(clash)    DE(int)     intcor
     15.02     -15.76       1.71        0.00      75.86       1.68       0.32       0.41       ----

> <Gold.Chemscore.Fitness>
15.0242

> <Gold.Chemscore.DG>
-15.7597

> <Gold.Chemscore.ZeroCoef>
-5.4800

> <Gold.Chemscore.Hbond>
1.7076

> <Gold.Chemscore.Metal>
0.0000

> <Gold.Chemscore.Lipo>
75.8577

> <Gold.Chemscore.Internal_Hbond>
0.0000

> <Gold.Chemscore.DEClash>
0.3239

> <Gold.Chemscore.DEInternal>
0.4116

> <Gold.Chemscore.Rot>
1.6793

> <Gold.Chemscore.Internal.Correction>
   9.000000E+99

> <Gold.Chemscore.Hbonds>
donor molecule, donor type, donor heavy atom, donor atom, acceptor molecule, acceptor atom, score
      L1  H    10    34       P1  7948  0.66
      P1  H  7954  7966       L1    13  0.96

> <Gold.Chemscore.Hbond.Weighted>
-5.7034

> <Gold.Chemscore.Metal.Weighted>
-0.0000

> <Gold.Chemscore.Lipo.Weighted>
-8.8754

> <Gold.Chemscore.Internal_Hbond.Weighted>
0.0000

> <Gold.Chemscore.DEClash.Weighted>
0.3239

> <Gold.Chemscore.DEInternal.Weighted>
0.4116

> <Gold.Chemscore.Rot.Weighted>
4.2990

> <Gold.Chemscore.Internal.Correction.Weighted>
   9.000000E+99

> <Gold.Protein.RotatedTorsions>
[ 6907 6896 6895 6894 ] final  -87.16 input  -60.11 | X-H torsion
[ 7974 7965 7964 7962 ] final  -70.37 input  175.53 | X-H torsion
[ 8008 7997 7996 7995 ] final   34.72 input   59.86 | X-H torsion
[ 10167 10162 10161 10158 ] final -111.04 input  -65.29 | X-H torsion
[ 10718 10713 10712 10709 ] final -105.29 input   66.30 | X-H torsion
[ 10763 10752 10751 10750 ] final  109.87 input  -60.55 | X-H torsion
[ 11005 11000 10999 10996 ] final   89.38 input  -57.11 | X-H torsion

> <Gold.Protein.ActiveResidues>
 VAL166  LYS551  ARG553  GLY616  TRP617  ASP618  TYR619  PRO620  LYS621  CYS622 
 ASP623  PHE694  ASN695  SER759  ASP760  ASP761  ALA762  ILE779  LEU786  VAL792 
 PHE793  MET794  SER795  GLU796  ALA797  LYS798  CYS799  TRP800  GLU811  SER814 

> <Gold.Protein.RotatedAtoms>
  150.6866  134.2939  159.4677 H   0  0  0  0  0  0  0  0  0  0  0  0  # atno 6907 bound_to 6896
  152.0842  134.9448  160.0582 H   0  0  0  0  0  0  0  0  0  0  0  0  # atno 6908 bound_to 6896
  152.0790  133.4108  159.4529 H   0  0  0  0  0  0  0  0  0  0  0  0  # atno 6909 bound_to 6896
  145.6918  140.9150  143.0777 H   0  0  0  0  0  0  0  0  0  0  0  0  # atno 7974 bound_to 7965
  155.1594  140.3282  155.4414 H   0  0  0  0  0  0  0  0  0  0  0  0  # atno 8008 bound_to 7997
  156.2547  140.1963  156.6653 H   0  0  0  0  0  0  0  0  0  0  0  0  # atno 8009 bound_to 7997
  154.6415  140.0569  156.9838 H   0  0  0  0  0  0  0  0  0  0  0  0  # atno 8010 bound_to 7997
  140.1379  143.4304  152.1582 H   0  0  0  0  0  0  0  0  0  0  0  0  # atno 10167 bound_to 10162
  156.0340  130.5556  150.7518 H   0  0  0  0  0  0  0  0  0  0  0  0  # atno 10718 bound_to 10713
  153.4408  135.3766  155.2227 H   0  0  0  0  0  0  0  0  0  0  0  0  # atno 10763 bound_to 10752
  154.8754  135.3862  154.4155 H   0  0  0  0  0  0  0  0  0  0  0  0  # atno 10764 bound_to 10752
  153.4700  135.7087  153.6062 H   0  0  0  0  0  0  0  0  0  0  0  0  # atno 10765 bound_to 10752
  139.8876  134.8547  156.3133 H   0  0  0  0  0  0  0  0  0  0  0  0  # atno 11005 bound_to 11000
  144.6994  139.8832  143.7448 LP  0  0  0  0  0  0  0  0  0  0  0  0  # atno 17320 bound_to 7965
  146.0875  139.3863  143.0426 LP  0  0  0  0  0  0  0  0  0  0  0  0  # atno 17321 bound_to 7965
  139.5486  144.7319  151.4504 LP  0  0  0  0  0  0  0  0  0  0  0  0  # atno 17342 bound_to 10162
  140.6778  143.8151  150.7081 LP  0  0  0  0  0  0  0  0  0  0  0  0  # atno 17343 bound_to 10162
  157.5060  131.0922  151.0256 LP  0  0  0  0  0  0  0  0  0  0  0  0  # atno 17370 bound_to 10713
  157.0625  130.5831  149.5388 LP  0  0  0  0  0  0  0  0  0  0  0  0  # atno 17371 bound_to 10713
  140.9835  133.7252  156.0708 LP  0  0  0  0  0  0  0  0  0  0  0  0  # atno 17394 bound_to 11000
  140.7718  134.3824  157.5506 LP  0  0  0  0  0  0  0  0  0  0  0  0  # atno 17395 bound_to 11000

$$$$
