AV-unprocessed.smi:1000|AV-procd|sdf|4355|dock9
  -GOLD-   22720 2253D 1   1.00000     0.00000
 Structure written by MMmdl.
 40 41  0  0  0  0  0  0  0  0  1 V2000
  152.8543  137.6656  160.8159 C   0  0  0  0  0  0  0  0  0  0  0  0
  153.3478  137.6447  159.0284 S   0  0  2  0  0  0  0  0  0  0  0  0
  153.5681  139.0976  158.6029 O   0  0  0  0  0  0  0  0  0  0  0  0
  151.6755  137.2426  158.4113 C   0  0  0  0  0  0  0  0  0  0  0  0
  150.7173  136.6923  159.1627 N   0  0  0  0  0  0  0  0  0  0  0  0
  149.6326  136.5606  158.3164 N   0  0  0  0  0  0  0  0  0  0  0  0
  150.0541  137.0454  157.1468 C   0  0  0  0  0  0  0  0  0  0  0  0
  151.3206  137.4906  157.1363 N   0  0  0  0  0  0  0  0  0  0  0  0
  152.0718  138.0751  156.0372 C   0  0  0  0  0  0  0  0  0  0  0  0
  151.4859  139.4223  155.6100 C   0  0  0  0  0  0  0  0  0  0  0  0
  151.0914  139.5787  154.4549 O   0  0  0  0  0  0  0  0  0  0  0  0
  151.4472  140.3874  156.5420 N   0  0  0  0  0  0  0  0  0  0  0  0
  151.0055  141.7565  156.3093 C   0  0  0  0  0  0  0  0  0  0  0  0
  150.0418  142.2234  157.4143 C   0  0  0  0  0  0  0  0  0  0  0  0
  150.6634  143.2534  158.3423 C   0  0  0  0  0  0  0  0  0  0  0  0
  149.9446  144.2644  158.8683 C   0  0  0  0  0  0  0  0  0  0  0  0
  150.5086  145.3127  159.8113 C   0  0  0  0  0  0  0  0  0  0  0  0
  151.8831  144.9157  160.3755 C   0  0  0  0  0  0  0  0  0  0  0  0
  152.7822  144.3274  159.2808 C   0  0  0  0  0  0  0  0  0  0  0  0
  152.1472  143.0773  158.6455 C   0  0  0  0  0  0  0  0  0  0  0  0
  152.0415  136.9647  161.0072 H   0  0  0  0  0  0  0  0  0  0  0  0
  152.5276  138.6645  161.1048 H   0  0  0  0  0  0  0  0  0  0  0  0
  153.7026  137.3848  161.4397 H   0  0  0  0  0  0  0  0  0  0  0  0
  149.4184  137.0793  156.2741 H   0  0  0  0  0  0  0  0  0  0  0  0
  153.1117  138.1930  156.3447 H   0  0  0  0  0  0  0  0  0  0  0  0
  152.0620  137.3874  155.1906 H   0  0  0  0  0  0  0  0  0  0  0  0
  151.7881  140.1696  157.4672 H   0  0  0  0  0  0  0  0  0  0  0  0
  151.8658  142.4248  156.2426 H   0  0  0  0  0  0  0  0  0  0  0  0
  150.5118  141.7861  155.3379 H   0  0  0  0  0  0  0  0  0  0  0  0
  149.1407  142.6503  156.9720 H   0  0  0  0  0  0  0  0  0  0  0  0
  149.7144  141.3646  158.0025 H   0  0  0  0  0  0  0  0  0  0  0  0
  148.8993  144.3680  158.6162 H   0  0  0  0  0  0  0  0  0  0  0  0
  150.5831  146.2522  159.2632 H   0  0  0  0  0  0  0  0  0  0  0  0
  149.8059  145.4766  160.6284 H   0  0  0  0  0  0  0  0  0  0  0  0
  152.3605  145.7804  160.8373 H   0  0  0  0  0  0  0  0  0  0  0  0
  151.7530  144.1756  161.1660 H   0  0  0  0  0  0  0  0  0  0  0  0
  152.9492  145.0820  158.5110 H   0  0  0  0  0  0  0  0  0  0  0  0
  153.7633  144.0799  159.6876 H   0  0  0  0  0  0  0  0  0  0  0  0
  152.2580  142.2277  159.3197 H   0  0  0  0  0  0  0  0  0  0  0  0
  152.6805  142.8250  157.7282 H   0  0  0  0  0  0  0  0  0  0  0  0
  1  2  1  0  0  0  0
  1 21  1  0  0  0  0
  1 22  1  0  0  0  0
  1 23  1  0  0  0  0
  2  3  2  0  0  0  0
  2  4  1  0  0  0  0
  4  8  1  0  0  0  0
  4  5  2  0  0  0  0
  5  6  1  0  0  0  0
  6  7  2  0  0  0  0
  7  8  1  0  0  0  0
  7 24  1  0  0  0  0
  8  9  1  0  0  0  0
  9 10  1  0  0  0  0
  9 25  1  0  0  0  0
  9 26  1  0  0  0  0
 10 11  2  0  0  0  0
 10 12  1  0  0  0  0
 12 13  1  0  0  0  0
 12 27  1  0  0  0  0
 13 14  1  0  0  0  0
 13 28  1  0  0  0  0
 13 29  1  0  0  0  0
 14 15  1  0  0  0  0
 14 30  1  0  0  0  0
 14 31  1  0  0  0  0
 15 20  1  0  0  0  0
 15 16  2  0  0  0  0
 16 17  1  0  0  0  0
 16 32  1  0  0  0  0
 17 18  1  0  0  0  0
 17 33  1  0  0  0  0
 17 34  1  0  0  0  0
 18 19  1  0  0  0  0
 18 35  1  0  0  0  0
 18 36  1  0  0  0  0
 19 20  1  0  0  0  0
 19 37  1  0  0  0  0
 19 38  1  0  0  0  0
 20 39  1  0  0  0  0
 20 40  1  0  0  0  0
M  END
> <s_m_source_file>
AV-unprocessed.smi

> <i_m_source_file_index>
1000

> <i_lp_mmshare_version>
43012

> <i_f3d_flags>
0

> <s_epik_input>
W0NIM11bU0BdKD1PKWMxbm5bY0hdbjFbQ0gyXUMoPU8pW05IXVtDSDJdW0NIMl1DMj1bQ0hdW0NIMl1bQ0gyXVtDSDJdW0NIMl0y

> <s_epik_cmdline>
J2VwaWtfcHl0aG9uJywgJy1waCcsICc3LjAnLCAnLXRuJywgJzgnLCAnLW1hJywgJzIwMCcsICctbWV0YWxfYmluZGluZycsICctaW1hZScsICc8aW5maWxlLm1hZT4nLCAnLW9tYWUnLCAnPG91dGZpbGUubWFlPic=

> <r_lp_tautomer_probability>
1

> <r_epik_Ionization_Penalty>
9.22166e-08

> <r_epik_Ionization_Penalty_Charging>
0

> <r_epik_Ionization_Penalty_Neutral>
9.22166e-08

> <r_epik_State_Penalty>
-0

> <r_epik_Charging_Adjusted_Penalty>
0

> <i_epik_Tot_Q>
0

> <i_epik_Tot_abs_Q>
0

> <r_epik_Metal_State_Penalty>
-0

> <b_epik_Metal_Only>
0

> <s_lp_Force_Field>
OPLS_2005

> <r_lp_Energy>
5.87902

> <b_lp_Chiralities_Consistent>
1

> <s_lp_Variant>
AV-unprocessed.smi:1000-1

> <Gold.Version>
5.8.1

> <Gold.Id.Protein>
6NUR|6NUR_protein|mol2

> <Gold.PLP.Fitness>
43.3433

> <Gold.PLP.PLP>
-35.9225

> <Gold.PLP.part.hbond>
-3.9918

> <Gold.PLP.part.metal>
0.0000

> <Gold.PLP.part.buried>
-6.4141

> <Gold.PLP.part.nonpolar>
-25.6584

> <Gold.PLP.part.repulsive>
0.2480

> <Gold.PLP.ligand.clash>
0.0000

> <Gold.PLP.ligand.torsion>
1.3381

> <Gold.PLP.Chemscore.Hbond>
2.9920

> <Gold.PLP.Chemscore.CHOScore>
0.0000

> <Gold.PLP.Chemscore.Metal>
0.0000

> <Gold.Chemscore.Hbonds>
donor molecule, donor type, donor heavy atom, donor atom, acceptor molecule, acceptor atom, score
      P1  H  6896  6909       L1     5  0.96
      P1  H  7989  7998       L1    11  1.00
      P1  H  7997  8010       L1     3  0.78

> <Gold.PLP.Chemscore.Internal.Correction>
1.1210

> <Gold.Rescore>
     Score         DG    S(hbond)    S(metal)    S(lipo)     H(rot)  DE(clash)    DE(int)     intcor
     18.26     -19.32       2.85        0.00      86.47       2.26       0.00       1.05       ----

> <Gold.Chemscore.Fitness>
18.2625

> <Gold.Chemscore.DG>
-19.3173

> <Gold.Chemscore.ZeroCoef>
-5.4800

> <Gold.Chemscore.Hbond>
2.8491

> <Gold.Chemscore.Metal>
0.0000

> <Gold.Chemscore.Lipo>
86.4706

> <Gold.Chemscore.Internal_Hbond>
0.0000

> <Gold.Chemscore.DEClash>
0.0000

> <Gold.Chemscore.DEInternal>
1.0547

> <Gold.Chemscore.Rot>
2.2640

> <Gold.Chemscore.Internal.Correction>
   9.000000E+99

> <Gold.Chemscore.Hbonds>
donor molecule, donor type, donor heavy atom, donor atom, acceptor molecule, acceptor atom, score
      P1  H  6896  6909       L1     5  0.58
      P1  H  7989  7998       L1    11  0.99
      P1  H  7997  8010       L1     3  0.76

> <Gold.Chemscore.Hbond.Weighted>
-9.5159

> <Gold.Chemscore.Metal.Weighted>
-0.0000

> <Gold.Chemscore.Lipo.Weighted>
-10.1171

> <Gold.Chemscore.Internal_Hbond.Weighted>
0.0000

> <Gold.Chemscore.DEClash.Weighted>
0.0000

> <Gold.Chemscore.DEInternal.Weighted>
1.0547

> <Gold.Chemscore.Rot.Weighted>
5.7957

> <Gold.Chemscore.Internal.Correction.Weighted>
   9.000000E+99

> <Gold.Protein.RotatedTorsions>
[ 6907 6896 6895 6894 ] final  112.90 input  -60.11 | X-H torsion
[ 7974 7965 7964 7962 ] final -154.98 input  175.53 | X-H torsion
[ 8008 7997 7996 7995 ] final   39.20 input   59.86 | X-H torsion
[ 10167 10162 10161 10158 ] final -145.73 input  -65.29 | X-H torsion
[ 10718 10713 10712 10709 ] final -118.10 input   66.30 | X-H torsion
[ 10763 10752 10751 10750 ] final -145.53 input  -60.55 | X-H torsion
[ 11005 11000 10999 10996 ] final   68.92 input  -57.11 | X-H torsion

> <Gold.Protein.ActiveResidues>
 VAL166  LYS551  ARG553  GLY616  TRP617  ASP618  TYR619  PRO620  LYS621  CYS622 
 ASP623  PHE694  ASN695  SER759  ASP760  ASP761  ALA762  ILE779  LEU786  VAL792 
 PHE793  MET794  SER795  GLU796  ALA797  LYS798  CYS799  TRP800  GLU811  SER814 

> <Gold.Protein.RotatedAtoms>
  152.4891  133.8451  159.7172 H   0  0  0  0  0  0  0  0  0  0  0  0  # atno 6907 bound_to 6896
  150.9004  133.7117  159.2887 H   0  0  0  0  0  0  0  0  0  0  0  0  # atno 6908 bound_to 6896
  151.4560  135.1038  159.9763 H   0  0  0  0  0  0  0  0  0  0  0  0  # atno 6909 bound_to 6896
  144.7662  140.4313  143.5940 H   0  0  0  0  0  0  0  0  0  0  0  0  # atno 7974 bound_to 7965
  155.2327  140.3339  155.4301 H   0  0  0  0  0  0  0  0  0  0  0  0  # atno 8008 bound_to 7997
  156.2288  140.1841  156.7340 H   0  0  0  0  0  0  0  0  0  0  0  0  # atno 8009 bound_to 7997
  154.5944  140.0633  156.9268 H   0  0  0  0  0  0  0  0  0  0  0  0  # atno 8010 bound_to 7997
  139.7778  143.8144  152.2634 H   0  0  0  0  0  0  0  0  0  0  0  0  # atno 10167 bound_to 10162
  156.1081  130.6227  150.9248 H   0  0  0  0  0  0  0  0  0  0  0  0  # atno 10718 bound_to 10713
  154.8379  135.3411  154.6518 H   0  0  0  0  0  0  0  0  0  0  0  0  # atno 10763 bound_to 10752
  153.7132  135.6962  153.5036 H   0  0  0  0  0  0  0  0  0  0  0  0  # atno 10764 bound_to 10752
  153.2436  135.4376  155.0678 H   0  0  0  0  0  0  0  0  0  0  0  0  # atno 10765 bound_to 10752
  139.9683  134.6943  156.0499 H   0  0  0  0  0  0  0  0  0  0  0  0  # atno 11005 bound_to 11000
  145.6461  139.1557  143.2888 LP  0  0  0  0  0  0  0  0  0  0  0  0  # atno 17320 bound_to 7965
  146.1772  140.6554  142.9206 LP  0  0  0  0  0  0  0  0  0  0  0  0  # atno 17321 bound_to 7965
  139.8198  144.7301  150.9588 LP  0  0  0  0  0  0  0  0  0  0  0  0  # atno 17342 bound_to 10162
  140.7817  143.4170  151.0901 LP  0  0  0  0  0  0  0  0  0  0  0  0  # atno 17343 bound_to 10162
  157.6260  131.0925  150.8532 LP  0  0  0  0  0  0  0  0  0  0  0  0  # atno 17370 bound_to 10713
  156.8648  130.5125  149.5301 LP  0  0  0  0  0  0  0  0  0  0  0  0  # atno 17371 bound_to 10713
  141.1363  133.6574  156.3603 LP  0  0  0  0  0  0  0  0  0  0  0  0  # atno 17394 bound_to 11000
  140.5348  134.6178  157.5361 LP  0  0  0  0  0  0  0  0  0  0  0  0  # atno 17395 bound_to 11000

$$$$
