AV-unprocessed.smi:21|AV-procd|sdf|144|dock10
  -GOLD-   2262015353D 1   1.00000     0.00000
 Structure written by MMmdl.
 62 65  0  0  0  0  0  0  0  0  2 V2000
  144.8922  135.0605  151.1407 C   0  0  0  0  0  0  0  0  0  0  0  0
  146.2002  134.6261  151.4785 O   0  0  0  0  0  0  0  0  0  0  0  0
  146.2306  133.6261  152.4888 C   0  0  2  0  0  0  0  0  0  0  0  0
  145.7111  134.1531  153.8272 C   0  0  0  0  0  0  0  0  0  0  0  0
  146.9104  134.8706  154.4735 C   0  0  2  0  0  0  0  0  0  0  0  0
  146.8485  136.4090  154.3631 C   0  0  0  0  0  0  0  0  0  0  0  0
  147.4418  137.0962  155.5138 N   0  0  0  0  0  0  0  0  0  0  0  0
  146.9952  136.7357  156.8543 C   0  0  0  0  0  0  0  0  0  0  0  0
  148.4526  137.9987  155.3397 C   0  0  0  0  0  0  0  0  0  0  0  0
  148.9816  138.1403  154.0933 N   0  0  0  0  0  0  0  0  0  0  0  0
  149.9742  139.0017  153.8591 C   0  0  0  0  0  0  0  0  0  0  0  0
  150.5882  139.8157  154.7161 N   0  0  0  0  0  0  0  0  0  0  0  0
  150.0706  139.6890  155.9702 C   0  0  0  0  0  0  0  0  0  0  0  0
  149.0150  138.8168  156.3702 C   0  0  0  0  0  0  0  0  0  0  0  0
  148.7847  138.9759  157.7344 N   0  0  0  0  0  0  0  0  0  0  0  0
  149.6431  139.8825  158.1120 C   0  0  0  0  0  0  0  0  0  0  0  0
  150.4525  140.3681  157.1129 N   0  0  0  0  0  0  0  0  0  0  0  0
  151.4953  141.3701  157.2425 C   0  0  0  0  0  0  0  0  0  0  0  0
  151.7977  141.7776  158.7091 C   0  0  1  0  0  0  0  0  0  0  0  0
  152.8481  140.8495  159.3715 C   0  0  0  0  0  0  0  0  0  0  0  0
  152.5341  139.4839  159.1925 O   0  0  0  0  0  0  0  0  0  0  0  0
  152.2448  143.2610  158.7816 C   0  0  2  0  0  0  0  0  0  0  0  0
  152.4601  143.7969  160.1981 C   0  0  0  0  0  0  0  0  0  0  0  0
  151.9455  145.2390  160.1594 C   0  0  0  0  0  0  0  0  0  0  0  0
  151.6513  145.4949  158.7957 O   0  0  0  0  0  0  0  0  0  0  0  0
  151.2384  144.2689  158.2199 C   0  0  0  0  0  0  0  0  0  0  0  0
  148.1126  134.3712  153.7627 N   0  3  1  0  0  0  0  0  0  0  0  0
  149.2284  133.9724  154.6470 C   0  0  0  0  0  0  0  0  0  0  0  0
  147.6915  133.3232  152.8101 C   0  0  0  0  0  0  0  0  0  0  0  0
  145.7071  132.7276  152.1576 H   0  0  0  0  0  0  0  0  0  0  0  0
  146.9598  134.5812  155.5243 H   0  0  0  0  0  0  0  0  0  0  0  0
  144.9514  135.8109  150.3526 H   0  0  0  0  0  0  0  0  0  0  0  0
  144.3808  135.5124  151.9905 H   0  0  0  0  0  0  0  0  0  0  0  0
  144.2866  134.2333  150.7685 H   0  0  0  0  0  0  0  0  0  0  0  0
  144.8207  134.7724  153.7377 H   0  0  0  0  0  0  0  0  0  0  0  0
  145.4345  133.3023  154.4515 H   0  0  0  0  0  0  0  0  0  0  0  0
  147.3436  136.7399  153.4495 H   0  0  0  0  0  0  0  0  0  0  0  0
  145.8103  136.7230  154.2491 H   0  0  0  0  0  0  0  0  0  0  0  0
  146.7034  137.6239  157.4152 H   0  0  0  0  0  0  0  0  0  0  0  0
  147.7859  136.2186  157.3982 H   0  0  0  0  0  0  0  0  0  0  0  0
  146.1313  136.0716  156.8200 H   0  0  0  0  0  0  0  0  0  0  0  0
  150.3271  139.0445  152.8394 H   0  0  0  0  0  0  0  0  0  0  0  0
  149.7063  140.2267  159.1341 H   0  0  0  0  0  0  0  0  0  0  0  0
  152.3996  140.9927  156.7632 H   0  0  0  0  0  0  0  0  0  0  0  0
  151.1774  142.2341  156.6595 H   0  0  0  0  0  0  0  0  0  0  0  0
  150.8709  141.6983  159.2800 H   0  0  0  0  0  0  0  0  0  0  0  0
  153.8454  141.0499  158.9787 H   0  0  0  0  0  0  0  0  0  0  0  0
  152.8997  141.0132  160.4471 H   0  0  0  0  0  0  0  0  0  0  0  0
  151.8429  139.4157  158.5515 H   0  0  0  0  0  0  0  0  0  0  0  0
  153.1778  143.3812  158.2281 H   0  0  0  0  0  0  0  0  0  0  0  0
  151.8997  143.2253  160.9392 H   0  0  0  0  0  0  0  0  0  0  0  0
  153.5138  143.7552  160.4755 H   0  0  0  0  0  0  0  0  0  0  0  0
  151.0317  145.3354  160.7476 H   0  0  0  0  0  0  0  0  0  0  0  0
  152.6735  145.9546  160.5421 H   0  0  0  0  0  0  0  0  0  0  0  0
  151.2560  144.3257  157.1313 H   0  0  0  0  0  0  0  0  0  0  0  0
  150.2206  144.0374  158.5393 H   0  0  0  0  0  0  0  0  0  0  0  0
  148.9389  133.1482  155.3002 H   0  0  0  0  0  0  0  0  0  0  0  0
  149.5367  134.8120  155.2707 H   0  0  0  0  0  0  0  0  0  0  0  0
  150.0887  133.6566  154.0561 H   0  0  0  0  0  0  0  0  0  0  0  0
  147.7572  132.3464  153.2927 H   0  0  0  0  0  0  0  0  0  0  0  0
  148.3274  133.3010  151.9244 H   0  0  0  0  0  0  0  0  0  0  0  0
  148.4383  135.1434  153.1991 H   0  0  0  0  0  0  0  0  0  0  0  0
  1  2  1  0  0  0  0
  1 32  1  0  0  0  0
  1 33  1  0  0  0  0
  1 34  1  0  0  0  0
  2  3  1  0  0  0  0
  3 30  1  0  0  0  0
  3 29  1  0  0  0  0
  3  4  1  0  0  0  0
  4  5  1  0  0  0  0
  4 35  1  0  0  0  0
  4 36  1  0  0  0  0
  5 31  1  0  0  0  0
  5  6  1  0  0  0  0
  5 27  1  0  0  0  0
  6  7  1  0  0  0  0
  6 37  1  0  0  0  0
  6 38  1  0  0  0  0
  7  8  1  0  0  0  0
  7  9  1  0  0  0  0
  8 39  1  0  0  0  0
  8 40  1  0  0  0  0
  8 41  1  0  0  0  0
  9 14  1  0  0  0  0
  9 10  2  0  0  0  0
 10 11  1  0  0  0  0
 11 12  2  0  0  0  0
 11 42  1  0  0  0  0
 12 13  1  0  0  0  0
 13 17  1  0  0  0  0
 13 14  2  0  0  0  0
 14 15  1  0  0  0  0
 15 16  2  0  0  0  0
 16 17  1  0  0  0  0
 16 43  1  0  0  0  0
 17 18  1  0  0  0  0
 18 19  1  0  0  0  0
 18 44  1  0  0  0  0
 18 45  1  0  0  0  0
 19 20  1  0  0  0  0
 19 22  1  0  0  0  0
 19 46  1  0  0  0  0
 20 21  1  0  0  0  0
 20 47  1  0  0  0  0
 20 48  1  0  0  0  0
 21 49  1  0  0  0  0
 22 26  1  0  0  0  0
 22 23  1  0  0  0  0
 22 50  1  0  0  0  0
 23 24  1  0  0  0  0
 23 51  1  0  0  0  0
 23 52  1  0  0  0  0
 24 25  1  0  0  0  0
 24 53  1  0  0  0  0
 24 54  1  0  0  0  0
 25 26  1  0  0  0  0
 26 55  1  0  0  0  0
 26 56  1  0  0  0  0
 27 28  1  0  0  0  0
 27 29  1  0  0  0  0
 27 62  1  0  0  0  0
 28 57  1  0  0  0  0
 28 58  1  0  0  0  0
 28 59  1  0  0  0  0
 29 60  1  0  0  0  0
 29 61  1  0  0  0  0
M  CHG  1  27   1
M  END
> <s_m_source_file>
AV-unprocessed.smi

> <i_m_source_file_index>
21

> <i_lp_mmshare_version>
43012

> <i_f3d_flags>
0

> <s_epik_input>
W0NIM11PW0NASF0xW0NIMl1bQ0BIXShOKFtDSDNdKVtDSDJdMSlbQ0gyXU4oW0NIM10pYyhuW2NIXW4yKWMoYzIzKW5bY0hdbjNbQ0gyXVtDQEhdKFtDSDJdW09IXSlbQ0BASF00W0NIMl1bQ0gyXU9bQ0gyXTQ=

> <s_epik_cmdline>
J2VwaWtfcHl0aG9uJywgJy1waCcsICc3LjAnLCAnLXRuJywgJzgnLCAnLW1hJywgJzIwMCcsICctbWV0YWxfYmluZGluZycsICctaW1hZScsICc8aW5maWxlLm1hZT4nLCAnLW9tYWUnLCAnPG91dGZpbGUubWFlPic=

> <r_lp_tautomer_probability>
1

> <r_epik_Ionization_Penalty>
0.0157465

> <r_epik_Ionization_Penalty_Charging>
0.015354

> <r_epik_Ionization_Penalty_Neutral>
0.000392529

> <r_epik_State_Penalty>
0.0120612

> <r_epik_Charging_Adjusted_Penalty>
0.0274152

> <i_epik_Tot_Q>
1

> <i_epik_Tot_abs_Q>
1

> <r_epik_Metal_State_Penalty>
0.0121253

> <b_epik_Metal_Only>
0

> <s_lp_Force_Field>
OPLS_2005

> <r_lp_Energy>
59.4837

> <b_lp_Chiralities_Consistent>
1

> <s_lp_Variant>
AV-unprocessed.smi:21-24

> <Gold.Version>
5.8.1

> <Gold.Id.Protein>
6NUR|6NUR_protein|mol2

> <Gold.PLP.Fitness>
50.9932

> <Gold.PLP.PLP>
-41.0513

> <Gold.PLP.part.hbond>
-2.9625

> <Gold.PLP.part.metal>
0.0000

> <Gold.PLP.part.buried>
-4.7679

> <Gold.PLP.part.nonpolar>
-34.4600

> <Gold.PLP.part.repulsive>
2.7728

> <Gold.PLP.ligand.clash>
0.0000

> <Gold.PLP.ligand.torsion>
1.0008

> <Gold.PLP.Chemscore.Hbond>
2.8500

> <Gold.PLP.Chemscore.CHOScore>
1.0000

> <Gold.PLP.Chemscore.Metal>
0.0000

> <Gold.Chemscore.Hbonds>
donor molecule, donor type, donor heavy atom, donor atom, acceptor molecule, acceptor atom, score
      L1  H    27    62       P1  7948  2.00
      P1  H  7989  7998       L1    12  1.00
      L1  C    11    42       P1  7957  1.00

> <Gold.PLP.Chemscore.Internal.Correction>
0.3936

> <Gold.Rescore>
     Score         DG    S(hbond)    S(metal)    S(lipo)     H(rot)  DE(clash)    DE(int)     intcor
      9.79     -12.89       1.15        0.00      97.92       3.08       0.88       2.22       ----

> <Gold.Chemscore.Fitness>
9.7930

> <Gold.Chemscore.DG>
-12.8894

> <Gold.Chemscore.ZeroCoef>
-5.4800

> <Gold.Chemscore.Hbond>
1.1457

> <Gold.Chemscore.Metal>
0.0000

> <Gold.Chemscore.Lipo>
97.9214

> <Gold.Chemscore.Internal_Hbond>
0.0000

> <Gold.Chemscore.DEClash>
0.8776

> <Gold.Chemscore.DEInternal>
2.2189

> <Gold.Chemscore.Rot>
3.0758

> <Gold.Chemscore.Internal.Correction>
   9.000000E+99

> <Gold.Chemscore.Hbonds>
donor molecule, donor type, donor heavy atom, donor atom, acceptor molecule, acceptor atom, score
      L1  H    27    62       P1  7948  0.88
      P1  H  7989  7998       L1    12  0.25

> <Gold.Chemscore.Hbond.Weighted>
-3.8267

> <Gold.Chemscore.Metal.Weighted>
-0.0000

> <Gold.Chemscore.Lipo.Weighted>
-11.4568

> <Gold.Chemscore.Internal_Hbond.Weighted>
0.0000

> <Gold.Chemscore.DEClash.Weighted>
0.8776

> <Gold.Chemscore.DEInternal.Weighted>
2.2189

> <Gold.Chemscore.Rot.Weighted>
7.8741

> <Gold.Chemscore.Internal.Correction.Weighted>
   9.000000E+99

> <Gold.Protein.RotatedTorsions>
[ 6907 6896 6895 6894 ] final  148.71 input  -60.11 | X-H torsion
[ 7974 7965 7964 7962 ] final  143.32 input  175.53 | X-H torsion
[ 8008 7997 7996 7995 ] final  -86.23 input   59.86 | X-H torsion
[ 10167 10162 10161 10158 ] final  149.37 input  -65.29 | X-H torsion
[ 10718 10713 10712 10709 ] final  -90.18 input   66.30 | X-H torsion
[ 10763 10752 10751 10750 ] final   57.48 input  -60.55 | X-H torsion
[ 11005 11000 10999 10996 ] final -173.25 input  -57.11 | X-H torsion

> <Gold.Protein.ActiveResidues>
 VAL166  LYS551  ARG553  GLY616  TRP617  ASP618  TYR619  PRO620  LYS621  CYS622 
 ASP623  PHE694  ASN695  SER759  ASP760  ASP761  ALA762  ILE779  LEU786  VAL792 
 PHE793  MET794  SER795  GLU796  ALA797  LYS798  CYS799  TRP800  GLU811  SER814 

> <Gold.Protein.RotatedAtoms>
  152.1378  133.4446  159.4751 H   0  0  0  0  0  0  0  0  0  0  0  0  # atno 6907 bound_to 6896
  150.6883  134.2342  159.4456 H   0  0  0  0  0  0  0  0  0  0  0  0  # atno 6908 bound_to 6896
  152.0231  134.9811  160.0621 H   0  0  0  0  0  0  0  0  0  0  0  0  # atno 6909 bound_to 6896
  144.8931  139.5530  143.5789 H   0  0  0  0  0  0  0  0  0  0  0  0  # atno 7974 bound_to 7965
  154.6495  140.0581  156.9939 H   0  0  0  0  0  0  0  0  0  0  0  0  # atno 8008 bound_to 7997
  155.1392  140.3264  155.4437 H   0  0  0  0  0  0  0  0  0  0  0  0  # atno 8009 bound_to 7997
  156.2569  140.1967  156.6509 H   0  0  0  0  0  0  0  0  0  0  0  0  # atno 8010 bound_to 7997
  139.4862  144.5607  151.7236 H   0  0  0  0  0  0  0  0  0  0  0  0  # atno 10167 bound_to 10162
  155.9987  130.4900  150.5283 H   0  0  0  0  0  0  0  0  0  0  0  0  # atno 10718 bound_to 10713
  152.9851  135.5640  154.5398 H   0  0  0  0  0  0  0  0  0  0  0  0  # atno 10763 bound_to 10752
  154.4855  135.2790  155.1540 H   0  0  0  0  0  0  0  0  0  0  0  0  # atno 10764 bound_to 10752
  154.3031  135.6303  153.5486 H   0  0  0  0  0  0  0  0  0  0  0  0  # atno 10765 bound_to 10752
  140.4878  134.6013  157.4943 H   0  0  0  0  0  0  0  0  0  0  0  0  # atno 11005 bound_to 11000
  146.3065  139.7598  142.9052 LP  0  0  0  0  0  0  0  0  0  0  0  0  # atno 17320 bound_to 7965
  145.3748  141.0349  143.3210 LP  0  0  0  0  0  0  0  0  0  0  0  0  # atno 17321 bound_to 7965
  140.5177  144.0928  150.6013 LP  0  0  0  0  0  0  0  0  0  0  0  0  # atno 17342 bound_to 10162
  140.3875  143.2770  152.0099 LP  0  0  0  0  0  0  0  0  0  0  0  0  # atno 17343 bound_to 10162
  157.3236  131.0686  151.1914 LP  0  0  0  0  0  0  0  0  0  0  0  0  # atno 17370 bound_to 10713
  157.2818  130.6754  149.6070 LP  0  0  0  0  0  0  0  0  0  0  0  0  # atno 17371 bound_to 10713
  139.9787  134.7172  155.9900 LP  0  0  0  0  0  0  0  0  0  0  0  0  # atno 17394 bound_to 11000
  141.1499  133.6550  156.3981 LP  0  0  0  0  0  0  0  0  0  0  0  0  # atno 17395 bound_to 11000

$$$$
