#       Name:                AV-unprocessed.smi:1396
#       Creating user name   scv26
#       Creation time:       Fri Mar 27 05:30:08 2020


#       File generated by GOLD software.
#

@<TRIPOS>MOLECULE
AV-unprocessed.smi:1396
    54    55     1
SMALL
NO_CHARGES


@<TRIPOS>ATOM
      1 ****        -3.4418  -6.2075  -1.6080 C.3            1 S1                 0.0000
      2 ****        -2.6559  -5.3982  -0.6889 N.am           1 S1                 0.0000
      3 ****        -3.0729  -4.2390  -0.1610 C.2            1 S1                 0.0000
      4 ****        -4.1779  -3.7490  -0.3963 O.2            1 S1                 0.0000
      5 ****        -2.0985  -3.5360   0.7896 C.3            1 S1                 0.0000
      6 ****        -2.3536  -2.0771   0.9064 N.4            1 S1                 1.0000
      7 ****        -1.8796  -1.3062  -0.2742 C.3            1 S1                 0.0000
      8 ****        -2.2927   0.1719  -0.1717 C.3            1 S1                 0.0000
      9 ****        -1.7910   0.8212   1.1340 C.3            1 S1                 0.0000
     10 ****        -0.3384   0.9955   1.1393 N.am           1 S1                 0.0000
     11 ****         0.3341   1.9283   0.4497 C.2            1 S1                 0.0000
     12 ****        -0.2090   2.7519  -0.2858 O.2            1 S1                 0.0000
     13 ****         1.6545   1.8508   0.6870 N.am           1 S1                 0.0000
     14 ****         2.6945   2.6291   0.1127 C.ar           1 S1                 0.0000
     15 ****         3.9091   2.7419   0.8185 C.ar           1 S1                 0.0000
     16 ****         4.9614   3.4901   0.2583 C.ar           1 S1                 0.0000
     17 ****         4.7697   4.0947  -0.9999 C.ar           1 S1                 0.0000
     18 ****         5.8048   4.8261  -1.5455 O.3            1 S1                 0.0000
     19 ****         5.6057   5.4329  -2.8175 C.3            1 S1                 0.0000
     20 ****         3.6107   3.9793  -1.6941 N.ar           1 S1                 0.0000
     21 ****         2.6040   3.2632  -1.1503 C.ar           1 S1                 0.0000
     22 ****        -2.2328  -0.0319   2.3358 C.3            1 S1                 0.0000
     23 ****        -1.8304  -1.5102   2.1756 C.3            1 S1                 0.0000
     24 ****        -2.8723  -7.0866  -1.9102 H              1 S1                 0.0000
     25 ****        -3.6954  -5.6416  -2.5053 H              1 S1                 0.0000
     26 ****        -4.3656  -6.5452  -1.1365 H              1 S1                 0.0000
     27 ****        -1.7386  -5.7414  -0.4420 H              1 S1                 0.0000
     28 ****        -2.2207  -4.0094   1.7648 H              1 S1                 0.0000
     29 ****        -1.0660  -3.7119   0.4826 H              1 S1                 0.0000
     30 ****        -0.7950  -1.3909  -0.3565 H              1 S1                 0.0000
     31 ****        -2.2954  -1.7265  -1.1902 H              1 S1                 0.0000
     32 ****        -1.9325   0.7216  -1.0419 H              1 S1                 0.0000
     33 ****        -3.3809   0.2386  -0.2072 H              1 S1                 0.0000
     34 ****        -2.2446   1.8092   1.2333 H              1 S1                 0.0000
     35 ****         0.1936   0.3707   1.7270 H              1 S1                 0.0000
     36 ****         1.9456   1.1928   1.3949 H              1 S1                 0.0000
     37 ****         4.0347   2.2663   1.7803 H              1 S1                 0.0000
     38 ****         5.8990   3.5972   0.7836 H              1 S1                 0.0000
     39 ****         6.5105   5.9661  -3.1080 H              1 S1                 0.0000
     40 ****         4.7896   6.1563  -2.7909 H              1 S1                 0.0000
     41 ****         5.3993   4.6882  -3.5875 H              1 S1                 0.0000
     42 ****         1.7204   3.1865  -1.7648 H              1 S1                 0.0000
     43 ****        -1.8184   0.3723   3.2603 H              1 S1                 0.0000
     44 ****        -3.3169   0.0309   2.4387 H              1 S1                 0.0000
     45 ****        -2.2222  -2.0778   3.0205 H              1 S1                 0.0000
     46 ****        -0.7448  -1.6153   2.2019 H              1 S1                 0.0000
     47 ****        -3.3581  -1.9725   0.9414 H              1 S1                 0.0000
     48 ****        -4.8136  -4.2197  -1.0081 LP             1 S1                 0.0000
     49 ****        -4.4395  -2.8803   0.0244 LP             1 S1                 0.0000
     50 ****        -1.2032   2.7476  -0.3931 LP             1 S1                 0.0000
     51 ****         0.3439   3.4255  -0.7763 LP             1 S1                 0.0000
     52 ****         6.5890   4.2114  -1.6303 LP             1 S1                 0.0000
     53 ****         6.0230   5.5576  -0.8996 LP             1 S1                 0.0000
     54 ****         3.5042   4.4146  -2.5881 LP             1 S1                 0.0000
@<TRIPOS>BOND
    1    1    2 1     
    2    1   24 1     
    3    1   25 1     
    4    1   26 1     
    5    2    3 am    
    6    2   27 1     
    7    3    4 2     
    8    3    5 1     
    9    5    6 1     
   10    5   28 1     
   11    5   29 1     
   12    6   23 1     
   13    6    7 1     
   14    6   47 1     
   15    7    8 1     
   16    7   30 1     
   17    7   31 1     
   18    8    9 1     
   19    8   32 1     
   20    8   33 1     
   21    9   10 1     
   22    9   22 1     
   23    9   34 1     
   24   10   11 am    
   25   10   35 1     
   26   11   12 2     
   27   11   13 am    
   28   13   14 1     
   29   13   36 1     
   30   14   21 ar    
   31   14   15 ar    
   32   15   16 ar    
   33   15   37 1     
   34   16   17 ar    
   35   16   38 1     
   36   17   18 1     
   37   17   20 ar    
   38   18   19 1     
   39   19   39 1     
   40   19   40 1     
   41   19   41 1     
   42   20   21 ar    
   43   21   42 1     
   44   22   23 1     
   45   22   43 1     
   46   22   44 1     
   47   23   45 1     
   48   23   46 1     
   49    4   48 1     
   50    4   49 1     
   51   12   50 1     
   52   12   51 1     
   53   18   52 1     
   54   18   53 1     
   55   20   54 1     
@<TRIPOS>SUBSTRUCTURE
      1 S1             1
@<TRIPOS>SET
LONE_PAIRS      STATIC     ATOMS    <user>   **** ""
7 48 49 50 51 52 53 54
DONOR_HYDROGENS      STATIC     ATOMS    <user>   **** ""
4 27 47 35 36
ATOM$BLUE        STATIC     ATOMS    COLORGROUP SYSTEM
7 48 49 50 51 52 53 54
ATOM$RED        STATIC     ATOMS    COLORGROUP SYSTEM
4 27 47 35 36
