AV-unprocessed.smi:2796|AV-procd|sdf|10782|dock3
  -GOLD-   2272015213D 1   1.00000     0.00000
 Structure written by MMmdl.
 27 28  0  0  0  0  0  0  0  0  1 V2000
  152.9517  137.6043  154.4324 N   0  0  0  0  0  0  0  0  0  0  0  0
  152.3346  138.4609  154.9065 C   0  0  0  0  0  0  0  0  0  0  0  0
  151.5608  139.5371  155.5016 C   0  0  0  0  0  0  0  0  0  0  0  0
  151.8006  139.9071  156.8416 C   0  0  0  0  0  0  0  0  0  0  0  0
  151.0393  140.9509  157.4020 C   0  0  0  0  0  0  0  0  0  0  0  0
  150.0626  141.5917  156.6050 C   0  0  0  0  0  0  0  0  0  0  0  0
  149.2512  142.6366  157.0694 N   0  0  0  0  0  0  0  0  0  0  0  0
  149.1580  142.9282  158.4924 C   0  0  0  0  0  0  0  0  0  0  0  0
  150.3212  143.7535  159.0059 C   0  0  0  0  0  0  0  0  0  0  0  0
  151.1505  144.4676  158.2171 C   0  0  0  0  0  0  0  0  0  0  0  0
  152.1514  145.2712  158.7014 O   0  0  0  0  0  0  0  0  0  0  0  0
  152.0676  145.5342  160.0979 C   0  0  0  0  0  0  0  0  0  0  0  0
  151.6895  144.2571  160.8655 C   0  0  0  0  0  0  0  0  0  0  0  0
  150.4698  143.7100  160.3725 O   0  0  0  0  0  0  0  0  0  0  0  0
  149.9054  141.1439  155.2764 C   0  0  0  0  0  0  0  0  0  0  0  0
  150.6313  140.1440  154.7321 N   0  0  0  0  0  0  0  0  0  0  0  0
  152.5516  139.4035  157.4333 H   0  0  0  0  0  0  0  0  0  0  0  0
  151.2156  141.2399  158.4272 H   0  0  0  0  0  0  0  0  0  0  0  0
  148.9428  143.3439  156.4172 H   0  0  0  0  0  0  0  0  0  0  0  0
  148.2411  143.4833  158.6922 H   0  0  0  0  0  0  0  0  0  0  0  0
  149.1057  141.9927  159.0508 H   0  0  0  0  0  0  0  0  0  0  0  0
  151.0726  144.5191  157.1413 H   0  0  0  0  0  0  0  0  0  0  0  0
  153.0256  145.9200  160.4476 H   0  0  0  0  0  0  0  0  0  0  0  0
  151.3253  146.3146  160.2706 H   0  0  0  0  0  0  0  0  0  0  0  0
  152.4779  143.5098  160.7675 H   0  0  0  0  0  0  0  0  0  0  0  0
  151.5807  144.4696  161.9291 H   0  0  0  0  0  0  0  0  0  0  0  0
  149.1734  141.6012  154.6267 H   0  0  0  0  0  0  0  0  0  0  0  0
  1  2  3  0  0  0  0
  2  3  1  0  0  0  0
  3 16  1  0  0  0  0
  3  4  2  0  0  0  0
  4  5  1  0  0  0  0
  4 17  1  0  0  0  0
  5  6  2  0  0  0  0
  5 18  1  0  0  0  0
  6  7  1  0  0  0  0
  6 15  1  0  0  0  0
  7  8  1  0  0  0  0
  7 19  1  0  0  0  0
  8  9  1  0  0  0  0
  8 20  1  0  0  0  0
  8 21  1  0  0  0  0
  9 14  1  0  0  0  0
  9 10  2  0  0  0  0
 10 11  1  0  0  0  0
 10 22  1  0  0  0  0
 11 12  1  0  0  0  0
 12 13  1  0  0  0  0
 12 23  1  0  0  0  0
 12 24  1  0  0  0  0
 13 14  1  0  0  0  0
 13 25  1  0  0  0  0
 13 26  1  0  0  0  0
 15 16  2  0  0  0  0
 15 27  1  0  0  0  0
M  END
> <s_m_source_file>
AV-unprocessed.smi

> <i_m_source_file_index>
2796

> <i_lp_mmshare_version>
43012

> <i_f3d_flags>
0

> <s_epik_input>
TiNDYzFbY0hdW2NIXWMoW2NIXW4xKVtOSF1bQ0gyXUMyPVtDSF1PW0NIMl1bQ0gyXU8y

> <s_epik_cmdline>
J2VwaWtfcHl0aG9uJywgJy1waCcsICc3LjAnLCAnLXRuJywgJzgnLCAnLW1hJywgJzIwMCcsICctbWV0YWxfYmluZGluZycsICctaW1hZScsICc8aW5maWxlLm1hZT4nLCAnLW9tYWUnLCAnPG91dGZpbGUubWFlPic=

> <r_lp_tautomer_probability>
1

> <r_epik_Ionization_Penalty>
1.57619e-06

> <r_epik_Ionization_Penalty_Charging>
0

> <r_epik_Ionization_Penalty_Neutral>
1.57619e-06

> <r_epik_State_Penalty>
-0

> <r_epik_Charging_Adjusted_Penalty>
0

> <i_epik_Tot_Q>
0

> <i_epik_Tot_abs_Q>
0

> <r_epik_Metal_State_Penalty>
-0

> <b_epik_Metal_Only>
0

> <s_lp_Force_Field>
OPLS_2005

> <r_lp_Energy>
3.17898

> <b_lp_Chiralities_Consistent>
1

> <s_lp_Variant>
AV-unprocessed.smi:2796-1

> <Gold.Version>
5.8.1

> <Gold.Id.Protein>
6NUR|6NUR_protein|mol2

> <Gold.PLP.Fitness>
43.7454

> <Gold.PLP.PLP>
-34.8996

> <Gold.PLP.part.hbond>
-4.2291

> <Gold.PLP.part.metal>
0.0000

> <Gold.PLP.part.buried>
-5.1798

> <Gold.PLP.part.nonpolar>
-26.9532

> <Gold.PLP.part.repulsive>
0.3362

> <Gold.PLP.ligand.clash>
0.0000

> <Gold.PLP.ligand.torsion>
0.4356

> <Gold.PLP.Chemscore.Hbond>
2.2387

> <Gold.PLP.Chemscore.CHOScore>
1.0000

> <Gold.PLP.Chemscore.Metal>
0.0000

> <Gold.Chemscore.Hbonds>
donor molecule, donor type, donor heavy atom, donor atom, acceptor molecule, acceptor atom, score
      L1  H     7    19       P1  8028  1.00
      P1  H  7989  7998       L1    16  1.00
      P1  H 10752 10765       L1     1  0.37
      L1  C    10    22       P1  8028  0.77

> <Gold.PLP.Chemscore.Internal.Correction>
0.0008

> <Gold.Rescore>
     Score         DG    S(hbond)    S(metal)    S(lipo)     H(rot)  DE(clash)    DE(int)     intcor
     17.54     -18.19       2.12        0.00      75.49       1.26       0.15       0.50       ----

> <Gold.Chemscore.Fitness>
17.5383

> <Gold.Chemscore.DG>
-18.1872

> <Gold.Chemscore.ZeroCoef>
-5.4800

> <Gold.Chemscore.Hbond>
2.1224

> <Gold.Chemscore.Metal>
0.0000

> <Gold.Chemscore.Lipo>
75.4916

> <Gold.Chemscore.Internal_Hbond>
0.0000

> <Gold.Chemscore.DEClash>
0.1461

> <Gold.Chemscore.DEInternal>
0.5028

> <Gold.Chemscore.Rot>
1.2554

> <Gold.Chemscore.Internal.Correction>
   9.000000E+99

> <Gold.Chemscore.Hbonds>
donor molecule, donor type, donor heavy atom, donor atom, acceptor molecule, acceptor atom, score
      L1  H     7    19       P1  8028  0.94
      P1  H  7989  7998       L1    16  0.19
      P1  H 10752 10765       L1     1  0.38

> <Gold.Chemscore.Hbond.Weighted>
-7.0887

> <Gold.Chemscore.Metal.Weighted>
-0.0000

> <Gold.Chemscore.Lipo.Weighted>
-8.8325

> <Gold.Chemscore.Internal_Hbond.Weighted>
0.0000

> <Gold.Chemscore.DEClash.Weighted>
0.1461

> <Gold.Chemscore.DEInternal.Weighted>
0.5028

> <Gold.Chemscore.Rot.Weighted>
3.2139

> <Gold.Chemscore.Internal.Correction.Weighted>
   9.000000E+99

> <Gold.Protein.RotatedTorsions>
[ 6907 6896 6895 6894 ] final  113.81 input  -60.11 | X-H torsion
[ 7974 7965 7964 7962 ] final  -66.64 input  175.53 | X-H torsion
[ 8008 7997 7996 7995 ] final -175.83 input   59.86 | X-H torsion
[ 10167 10162 10161 10158 ] final   53.24 input  -65.29 | X-H torsion
[ 10718 10713 10712 10709 ] final -105.43 input   66.30 | X-H torsion
[ 10763 10752 10751 10750 ] final  152.66 input  -60.55 | X-H torsion
[ 11005 11000 10999 10996 ] final -178.32 input  -57.11 | X-H torsion

> <Gold.Protein.ActiveResidues>
 VAL166  LYS551  ARG553  GLY616  TRP617  ASP618  TYR619  PRO620  LYS621  CYS622 
 ASP623  PHE694  ASN695  SER759  ASP760  ASP761  ALA762  ILE779  LEU786  VAL792 
 PHE793  MET794  SER795  GLU796  ALA797  LYS798  CYS799  TRP800  GLU811  SER814 

> <Gold.Protein.RotatedAtoms>
  152.4839  133.8324  159.7109 H   0  0  0  0  0  0  0  0  0  0  0  0  # atno 6907 bound_to 6896
  150.8910  133.7233  159.2911 H   0  0  0  0  0  0  0  0  0  0  0  0  # atno 6908 bound_to 6896
  151.4706  135.1049  159.9802 H   0  0  0  0  0  0  0  0  0  0  0  0  # atno 6909 bound_to 6896
  145.7393  140.8961  143.0538 H   0  0  0  0  0  0  0  0  0  0  0  0  # atno 7974 bound_to 7965
  155.9874  140.1194  157.0670 H   0  0  0  0  0  0  0  0  0  0  0  0  # atno 8008 bound_to 7997
  154.4201  140.1132  156.5587 H   0  0  0  0  0  0  0  0  0  0  0  0  # atno 8009 bound_to 7997
  155.6389  140.3473  155.4710 H   0  0  0  0  0  0  0  0  0  0  0  0  # atno 8010 bound_to 7997
  140.2429  144.3564  150.6374 H   0  0  0  0  0  0  0  0  0  0  0  0  # atno 10167 bound_to 10162
  156.0346  130.5563  150.7538 H   0  0  0  0  0  0  0  0  0  0  0  0  # atno 10718 bound_to 10713
  154.1237  135.2831  155.3202 H   0  0  0  0  0  0  0  0  0  0  0  0  # atno 10763 bound_to 10752
  154.6405  135.5404  153.7787 H   0  0  0  0  0  0  0  0  0  0  0  0  # atno 10764 bound_to 10752
  153.0304  135.6485  154.1390 H   0  0  0  0  0  0  0  0  0  0  0  0  # atno 10765 bound_to 10752
  140.4311  134.6518  157.4712 H   0  0  0  0  0  0  0  0  0  0  0  0  # atno 11005 bound_to 11000
  144.6874  139.9438  143.7476 LP  0  0  0  0  0  0  0  0  0  0  0  0  # atno 17320 bound_to 7965
  146.0463  139.3469  143.0666 LP  0  0  0  0  0  0  0  0  0  0  0  0  # atno 17321 bound_to 7965
  140.6100  143.2169  151.6905 LP  0  0  0  0  0  0  0  0  0  0  0  0  # atno 17342 bound_to 10162
  139.5071  144.3656  152.0519 LP  0  0  0  0  0  0  0  0  0  0  0  0  # atno 17343 bound_to 10162
  157.5075  131.0923  151.0239 LP  0  0  0  0  0  0  0  0  0  0  0  0  # atno 17370 bound_to 10713
  157.0603  130.5823  149.5385 LP  0  0  0  0  0  0  0  0  0  0  0  0  # atno 17371 bound_to 10713
  140.0134  134.6656  155.9346 LP  0  0  0  0  0  0  0  0  0  0  0  0  # atno 17394 bound_to 11000
  141.1745  133.6539  156.4777 LP  0  0  0  0  0  0  0  0  0  0  0  0  # atno 17395 bound_to 11000

$$$$
