AV-unprocessed.smi:2526|AV-procd|sdf|9938|dock2
  -GOLD-   2272013583D 1   1.00000     0.00000
 Structure written by MMmdl.
 28 29  0  0  0  0  0  0  0  0  1 V2000
  141.6391  138.1602  154.3074 C   0  0  0  0  0  0  0  0  0  0  0  0
  142.2081  137.0055  153.6460 N   0  0  0  0  0  0  0  0  0  0  0  0
  143.1061  136.9699  152.6015 C   0  0  0  0  0  0  0  0  0  0  0  0
  143.3611  135.6568  152.3185 C   0  0  0  0  0  0  0  0  0  0  0  0
  144.2817  135.0853  151.2656 C   0  0  2  0  0  0  0  0  0  0  0  0
  143.6619  133.9295  150.6098 N   0  0  0  0  0  0  0  0  0  0  0  0
  144.2702  132.7984  150.2095 C   0  0  0  0  0  0  0  0  0  0  0  0
  143.6544  131.9132  149.6205 O   0  0  0  0  0  0  0  0  0  0  0  0
  145.7591  132.5985  150.5259 C   0  0  0  0  0  0  0  0  0  0  0  0
  146.4875  133.9064  150.8679 C   0  0  0  0  0  0  0  0  0  0  0  0
  145.6664  134.7361  151.8616 C   0  0  1  0  0  0  0  0  0  0  0  0
  146.4000  135.9376  152.2172 N   0  0  0  0  0  0  0  0  0  0  0  0
  142.5555  134.9593  153.2663 C   0  0  0  0  0  0  0  0  0  0  0  0
  141.8683  135.7671  154.0565 N   0  0  0  0  0  0  0  0  0  0  0  0
  141.7246  139.0369  153.6650 H   0  0  0  0  0  0  0  0  0  0  0  0
  142.1736  138.3477  155.2388 H   0  0  0  0  0  0  0  0  0  0  0  0
  140.5850  137.9861  154.5274 H   0  0  0  0  0  0  0  0  0  0  0  0
  143.4900  137.8735  152.1509 H   0  0  0  0  0  0  0  0  0  0  0  0
  144.4279  135.8187  150.4707 H   0  0  0  0  0  0  0  0  0  0  0  0
  142.6766  134.0139  150.4058 H   0  0  0  0  0  0  0  0  0  0  0  0
  145.8270  131.9121  151.3706 H   0  0  0  0  0  0  0  0  0  0  0  0
  146.2482  132.1069  149.6840 H   0  0  0  0  0  0  0  0  0  0  0  0
  147.4687  133.6762  151.2850 H   0  0  0  0  0  0  0  0  0  0  0  0
  146.6640  134.4781  149.9553 H   0  0  0  0  0  0  0  0  0  0  0  0
  145.5291  134.1482  152.7707 H   0  0  0  0  0  0  0  0  0  0  0  0
  146.1936  136.1887  153.1734 H   0  0  0  0  0  0  0  0  0  0  0  0
  147.3920  135.7522  152.1783 H   0  0  0  0  0  0  0  0  0  0  0  0
  142.4530  133.8928  153.4037 H   0  0  0  0  0  0  0  0  0  0  0  0
  1  2  1  0  0  0  0
  1 15  1  0  0  0  0
  1 16  1  0  0  0  0
  1 17  1  0  0  0  0
  2 14  1  0  0  0  0
  2  3  1  0  0  0  0
  3  4  2  0  0  0  0
  3 18  1  0  0  0  0
  4  5  1  0  0  0  0
  4 13  1  0  0  0  0
  5 11  1  0  0  0  0
  5  6  1  0  0  0  0
  5 19  1  0  0  0  0
  6  7  1  0  0  0  0
  6 20  1  0  0  0  0
  7  8  2  0  0  0  0
  7  9  1  0  0  0  0
  9 10  1  0  0  0  0
  9 21  1  0  0  0  0
  9 22  1  0  0  0  0
 10 11  1  0  0  0  0
 10 23  1  0  0  0  0
 10 24  1  0  0  0  0
 11 12  1  0  0  0  0
 11 25  1  0  0  0  0
 12 26  1  0  0  0  0
 12 27  1  0  0  0  0
 13 14  2  0  0  0  0
 13 28  1  0  0  0  0
M  END
> <s_m_source_file>
AV-unprocessed.smi

> <i_m_source_file_index>
2526

> <i_lp_mmshare_version>
43012

> <i_f3d_flags>
0

> <s_epik_input>
W0NIM11uMVtjSF1jKFtjSF1uMSlbQ0BASF0yW05IXUMoPU8pW0NIMl1bQ0gyXVtDQEhdMltOSDJd

> <s_epik_cmdline>
J2VwaWtfcHl0aG9uJywgJy1waCcsICc3LjAnLCAnLXRuJywgJzgnLCAnLW1hJywgJzIwMCcsICctbWV0YWxfYmluZGluZycsICctaW1hZScsICc8aW5maWxlLm1hZT4nLCAnLW9tYWUnLCAnPG91dGZpbGUubWFlPic=

> <r_lp_tautomer_probability>
1

> <r_epik_Ionization_Penalty>
2.50279

> <r_epik_Ionization_Penalty_Charging>
0

> <r_epik_Ionization_Penalty_Neutral>
2.50279

> <r_epik_State_Penalty>
2.66754

> <r_epik_Charging_Adjusted_Penalty>
2.66754

> <i_epik_Tot_Q>
0

> <i_epik_Tot_abs_Q>
0

> <r_epik_Metal_State_Penalty>
2.66721

> <b_epik_Metal_Only>
0

> <s_lp_Force_Field>
OPLS_2005

> <r_lp_Energy>
8.43832

> <b_lp_Chiralities_Consistent>
1

> <s_lp_Variant>
AV-unprocessed.smi:2526-5

> <Gold.Version>
5.8.1

> <Gold.Id.Protein>
6NUR|6NUR_protein|mol2

> <Gold.PLP.Fitness>
42.4806

> <Gold.PLP.PLP>
-26.1763

> <Gold.PLP.part.hbond>
-3.0000

> <Gold.PLP.part.metal>
0.0000

> <Gold.PLP.part.buried>
-7.0125

> <Gold.PLP.part.nonpolar>
-16.5094

> <Gold.PLP.part.repulsive>
0.3119

> <Gold.PLP.ligand.clash>
0.0000

> <Gold.PLP.ligand.torsion>
0.5862

> <Gold.PLP.Chemscore.Hbond>
2.9440

> <Gold.PLP.Chemscore.CHOScore>
2.8730

> <Gold.PLP.Chemscore.Metal>
0.0000

> <Gold.Chemscore.Hbonds>
donor molecule, donor type, donor heavy atom, donor atom, acceptor molecule, acceptor atom, score
      L1  H     6    20       P1 10186  1.00
      L1  H    12    27       P1  7948  1.00
      P1  H 10785 10796       L1     8  0.94
      L1  C     3    18       P1 10171  1.00
      L1  C     3    18       P1 10175  0.88
      L1  C    13    28       P1 10957  0.99

> <Gold.PLP.Chemscore.Internal.Correction>
0.0258

> <Gold.Rescore>
     Score         DG    S(hbond)    S(metal)    S(lipo)     H(rot)  DE(clash)    DE(int)     intcor
     16.59     -17.38       2.86        0.00      41.93       1.00       0.68       0.11       ----

> <Gold.Chemscore.Fitness>
16.5907

> <Gold.Chemscore.DG>
-17.3801

> <Gold.Chemscore.ZeroCoef>
-5.4800

> <Gold.Chemscore.Hbond>
2.8605

> <Gold.Chemscore.Metal>
0.0000

> <Gold.Chemscore.Lipo>
41.9310

> <Gold.Chemscore.Internal_Hbond>
0.0000

> <Gold.Chemscore.DEClash>
0.6797

> <Gold.Chemscore.DEInternal>
0.1097

> <Gold.Chemscore.Rot>
1.0000

> <Gold.Chemscore.Internal.Correction>
   9.000000E+99

> <Gold.Chemscore.Hbonds>
donor molecule, donor type, donor heavy atom, donor atom, acceptor molecule, acceptor atom, score
      L1  H     6    20       P1 10186  0.92
      L1  H    12    27       P1  7948  0.96
      P1  H 10785 10796       L1     8  0.85

> <Gold.Chemscore.Hbond.Weighted>
-9.5541

> <Gold.Chemscore.Metal.Weighted>
-0.0000

> <Gold.Chemscore.Lipo.Weighted>
-4.9059

> <Gold.Chemscore.Internal_Hbond.Weighted>
0.0000

> <Gold.Chemscore.DEClash.Weighted>
0.6797

> <Gold.Chemscore.DEInternal.Weighted>
0.1097

> <Gold.Chemscore.Rot.Weighted>
2.5600

> <Gold.Chemscore.Internal.Correction.Weighted>
   9.000000E+99

> <Gold.Protein.RotatedTorsions>
[ 6907 6896 6895 6894 ] final  -35.76 input  -60.11 | X-H torsion
[ 7974 7965 7964 7962 ] final   43.40 input  175.53 | X-H torsion
[ 8008 7997 7996 7995 ] final  -39.42 input   59.86 | X-H torsion
[ 10167 10162 10161 10158 ] final   30.55 input  -65.29 | X-H torsion
[ 10718 10713 10712 10709 ] final   31.26 input   66.30 | X-H torsion
[ 10763 10752 10751 10750 ] final  177.25 input  -60.55 | X-H torsion
[ 11005 11000 10999 10996 ] final  -61.94 input  -57.11 | X-H torsion

> <Gold.Protein.ActiveResidues>
 VAL166  LYS551  ARG553  GLY616  TRP617  ASP618  TYR619  PRO620  LYS621  CYS622 
 ASP623  PHE694  ASN695  SER759  ASP760  ASP761  ALA762  ILE779  LEU786  VAL792 
 PHE793  MET794  SER795  GLU796  ALA797  LYS798  CYS799  TRP800  GLU811  SER814 

> <Gold.Protein.RotatedAtoms>
  151.0357  134.9571  159.8134 H   0  0  0  0  0  0  0  0  0  0  0  0  # atno 6907 bound_to 6896
  152.5354  134.2722  159.8986 H   0  0  0  0  0  0  0  0  0  0  0  0  # atno 6908 bound_to 6896
  151.2733  133.4202  159.2656 H   0  0  0  0  0  0  0  0  0  0  0  0  # atno 6909 bound_to 6896
  146.0658  139.5191  142.9629 H   0  0  0  0  0  0  0  0  0  0  0  0  # atno 7974 bound_to 7965
  154.4023  140.1552  156.2860 H   0  0  0  0  0  0  0  0  0  0  0  0  # atno 8008 bound_to 7997
  155.8828  140.3443  155.5878 H   0  0  0  0  0  0  0  0  0  0  0  0  # atno 8009 bound_to 7997
  155.7648  140.0822  157.2128 H   0  0  0  0  0  0  0  0  0  0  0  0  # atno 8010 bound_to 7997
  140.4668  144.0824  150.6226 H   0  0  0  0  0  0  0  0  0  0  0  0  # atno 10167 bound_to 10162
  157.2701  130.7204  149.6500 H   0  0  0  0  0  0  0  0  0  0  0  0  # atno 10718 bound_to 10713
  154.4920  135.2779  155.1489 H   0  0  0  0  0  0  0  0  0  0  0  0  # atno 10763 bound_to 10752
  154.3156  135.6220  153.5489 H   0  0  0  0  0  0  0  0  0  0  0  0  # atno 10764 bound_to 10752
  152.9889  135.5730  154.5344 H   0  0  0  0  0  0  0  0  0  0  0  0  # atno 10765 bound_to 10752
  141.1342  133.6635  156.5451 H   0  0  0  0  0  0  0  0  0  0  0  0  # atno 11005 bound_to 11000
  145.6479  141.0270  143.1776 LP  0  0  0  0  0  0  0  0  0  0  0  0  # atno 17320 bound_to 7965
  144.7202  139.8058  143.7385 LP  0  0  0  0  0  0  0  0  0  0  0  0  # atno 17321 bound_to 7965
  140.4026  143.2696  151.9929 LP  0  0  0  0  0  0  0  0  0  0  0  0  # atno 17342 bound_to 10162
  139.4813  144.5984  151.7649 LP  0  0  0  0  0  0  0  0  0  0  0  0  # atno 17343 bound_to 10162
  155.9663  130.4370  150.5158 LP  0  0  0  0  0  0  0  0  0  0  0  0  # atno 17370 bound_to 10713
  157.3080  131.0658  151.2021 LP  0  0  0  0  0  0  0  0  0  0  0  0  # atno 17371 bound_to 10713
  140.4108  134.7274  157.4835 LP  0  0  0  0  0  0  0  0  0  0  0  0  # atno 17394 bound_to 11000
  140.0428  134.6242  155.8958 LP  0  0  0  0  0  0  0  0  0  0  0  0  # atno 17395 bound_to 11000

$$$$
