AV-unprocessed.smi:821|AV-procd|sdf|3841|dock3
  -GOLD-   22720 1283D 1   1.00000     0.00000
 Structure written by MMmdl.
 45 46  0  0  0  0  0  0  0  0  2 V2000
  147.9039  138.6773  153.9509 C   0  0  0  0  0  0  0  0  0  0  0  0
  148.7353  138.5513  155.2347 C   0  0  1  0  0  0  0  0  0  0  0  0
  149.5455  137.2347  155.2527 C   0  0  0  0  0  0  0  0  0  0  0  0
  148.8287  136.1030  154.6118 N   0  3  0  0  0  0  0  0  0  0  0  0
  149.5778  134.8239  154.6619 C   0  0  0  0  0  0  0  0  0  0  0  0
  148.8068  133.7284  153.9076 C   0  0  0  0  0  0  0  0  0  0  0  0
  147.5082  133.5872  154.4713 O   0  0  0  0  0  0  0  0  0  0  0  0
  146.7466  134.7839  154.3654 C   0  0  0  0  0  0  0  0  0  0  0  0
  147.4531  135.9172  155.1290 C   0  0  0  0  0  0  0  0  0  0  0  0
  149.6109  139.7182  155.3503 N   0  0  0  0  0  0  0  0  0  0  0  0
  149.9365  140.3536  156.4870 C   0  0  0  0  0  0  0  0  0  0  0  0
  149.5568  139.9842  157.5988 O   0  0  0  0  0  0  0  0  0  0  0  0
  150.8580  141.5719  156.3354 C   0  0  0  0  0  0  0  0  0  0  0  0
  151.4376  142.0256  157.6112 N   0  0  0  0  0  0  0  0  0  0  0  0
  151.0162  143.2781  158.0925 C   0  0  0  0  0  0  0  0  0  0  0  0
  151.4824  143.7846  159.2419 C   0  0  0  0  0  0  0  0  0  0  0  0
  152.4401  143.0082  159.9912 C   0  0  0  0  0  0  0  0  0  0  0  0
  152.8682  141.8023  159.5511 C   0  0  0  0  0  0  0  0  0  0  0  0
  153.8787  140.9659  160.3336 C   0  0  0  0  0  0  0  0  0  0  0  0
  155.0863  141.0458  159.7738 F   0  0  0  0  0  0  0  0  0  0  0  0
  153.9877  141.3767  161.5979 F   0  0  0  0  0  0  0  0  0  0  0  0
  153.5120  139.6836  160.3521 F   0  0  0  0  0  0  0  0  0  0  0  0
  152.3521  141.2559  158.2794 C   0  0  0  0  0  0  0  0  0  0  0  0
  152.7173  140.1673  157.8320 O   0  0  0  0  0  0  0  0  0  0  0  0
  147.2096  137.8425  153.8502 H   0  0  0  0  0  0  0  0  0  0  0  0
  148.5386  138.6907  153.0642 H   0  0  0  0  0  0  0  0  0  0  0  0
  147.3143  139.5949  153.9529 H   0  0  0  0  0  0  0  0  0  0  0  0
  148.0290  138.5501  156.0661 H   0  0  0  0  0  0  0  0  0  0  0  0
  150.5163  137.3705  154.7732 H   0  0  0  0  0  0  0  0  0  0  0  0
  149.7557  136.9819  156.2930 H   0  0  0  0  0  0  0  0  0  0  0  0
  150.5656  134.9432  154.2173 H   0  0  0  0  0  0  0  0  0  0  0  0
  149.7289  134.5260  155.7007 H   0  0  0  0  0  0  0  0  0  0  0  0
  148.7338  133.9650  152.8446 H   0  0  0  0  0  0  0  0  0  0  0  0
  149.3320  132.7766  153.9868 H   0  0  0  0  0  0  0  0  0  0  0  0
  146.6080  135.0488  153.3157 H   0  0  0  0  0  0  0  0  0  0  0  0
  145.7549  134.6101  154.7837 H   0  0  0  0  0  0  0  0  0  0  0  0
  147.4896  135.6880  156.1953 H   0  0  0  0  0  0  0  0  0  0  0  0
  146.8858  136.8417  155.0168 H   0  0  0  0  0  0  0  0  0  0  0  0
  149.9765  140.0925  154.4861 H   0  0  0  0  0  0  0  0  0  0  0  0
  151.6461  141.3140  155.6267 H   0  0  0  0  0  0  0  0  0  0  0  0
  150.3081  142.3880  155.8624 H   0  0  0  0  0  0  0  0  0  0  0  0
  150.3024  143.7975  157.4697 H   0  0  0  0  0  0  0  0  0  0  0  0
  151.1520  144.7499  159.5971 H   0  0  0  0  0  0  0  0  0  0  0  0
  152.8121  143.4124  160.9208 H   0  0  0  0  0  0  0  0  0  0  0  0
  148.7319  136.3470  153.6362 H   0  0  0  0  0  0  0  0  0  0  0  0
  1  2  1  0  0  0  0
  1 25  1  0  0  0  0
  1 26  1  0  0  0  0
  1 27  1  0  0  0  0
  2  3  1  0  0  0  0
  2 10  1  0  0  0  0
  2 28  1  0  0  0  0
  3  4  1  0  0  0  0
  3 29  1  0  0  0  0
  3 30  1  0  0  0  0
  4  9  1  0  0  0  0
  4  5  1  0  0  0  0
  4 45  1  0  0  0  0
  5  6  1  0  0  0  0
  5 31  1  0  0  0  0
  5 32  1  0  0  0  0
  6  7  1  0  0  0  0
  6 33  1  0  0  0  0
  6 34  1  0  0  0  0
  7  8  1  0  0  0  0
  8  9  1  0  0  0  0
  8 35  1  0  0  0  0
  8 36  1  0  0  0  0
  9 37  1  0  0  0  0
  9 38  1  0  0  0  0
 10 11  1  0  0  0  0
 10 39  1  0  0  0  0
 11 12  2  0  0  0  0
 11 13  1  0  0  0  0
 13 14  1  0  0  0  0
 13 40  1  0  0  0  0
 13 41  1  0  0  0  0
 14 23  1  0  0  0  0
 14 15  1  0  0  0  0
 15 16  2  0  0  0  0
 15 42  1  0  0  0  0
 16 17  1  0  0  0  0
 16 43  1  0  0  0  0
 17 18  2  0  0  0  0
 17 44  1  0  0  0  0
 18 19  1  0  0  0  0
 18 23  1  0  0  0  0
 19 20  1  0  0  0  0
 19 21  1  0  0  0  0
 19 22  1  0  0  0  0
 23 24  2  0  0  0  0
M  CHG  1   4   1
M  END
> <s_m_source_file>
AV-unprocessed.smi

> <i_m_source_file_index>
821

> <i_lp_mmshare_version>
43012

> <i_f3d_flags>
0

> <s_epik_input>
W0NIMl0xW0NIMl1PW0NIMl1bQ0gyXU4xW0NIMl1bQ0BASF0oW0NIM10pW05IXUMoPU8pW0NIMl1uMltjSF1bY0hdW2NIXWMoQyhGKShGKUYpYzI9Tw==

> <s_epik_cmdline>
J2VwaWtfcHl0aG9uJywgJy1waCcsICc3LjAnLCAnLXRuJywgJzgnLCAnLW1hJywgJzIwMCcsICctbWV0YWxfYmluZGluZycsICctaW1hZScsICc8aW5maWxlLm1hZT4nLCAnLW9tYWUnLCAnPG91dGZpbGUubWFlPic=

> <r_lp_tautomer_probability>
1

> <r_epik_Ionization_Penalty>
0.656654

> <r_epik_Ionization_Penalty_Charging>
0.656653

> <r_epik_Ionization_Penalty_Neutral>
9.12373e-08

> <r_epik_State_Penalty>
0.675641

> <r_epik_Charging_Adjusted_Penalty>
1.33229

> <i_epik_Tot_Q>
1

> <i_epik_Tot_abs_Q>
1

> <r_epik_Metal_State_Penalty>
0.675695

> <b_epik_Metal_Only>
0

> <s_lp_Force_Field>
OPLS_2005

> <r_lp_Energy>
32.7589

> <b_lp_Chiralities_Consistent>
1

> <s_lp_Variant>
AV-unprocessed.smi:821-4

> <Gold.Version>
5.8.1

> <Gold.Id.Protein>
6NUR|6NUR_protein|mol2

> <Gold.PLP.Fitness>
50.0145

> <Gold.PLP.PLP>
-40.4693

> <Gold.PLP.part.hbond>
-2.0000

> <Gold.PLP.part.metal>
0.0000

> <Gold.PLP.part.buried>
-3.6599

> <Gold.PLP.part.nonpolar>
-34.2462

> <Gold.PLP.part.repulsive>
0.1208

> <Gold.PLP.ligand.clash>
0.0000

> <Gold.PLP.ligand.torsion>
1.4979

> <Gold.PLP.Chemscore.Hbond>
3.0000

> <Gold.PLP.Chemscore.CHOScore>
1.0000

> <Gold.PLP.Chemscore.Metal>
0.0000

> <Gold.Chemscore.Hbonds>
donor molecule, donor type, donor heavy atom, donor atom, acceptor molecule, acceptor atom, score
      L1  H     4    45       P1  7948  2.00
      P1  H  7997  8008       L1    24  1.00
      L1  C    15    42       P1  8028  1.00

> <Gold.PLP.Chemscore.Internal.Correction>
0.5410

> <Gold.Rescore>
     Score         DG    S(hbond)    S(metal)    S(lipo)     H(rot)  DE(clash)    DE(int)     intcor
     13.04     -16.51       1.91        0.00      87.20       2.17       0.77       2.69       ----

> <Gold.Chemscore.Fitness>
13.0435

> <Gold.Chemscore.DG>
-16.5080

> <Gold.Chemscore.ZeroCoef>
-5.4800

> <Gold.Chemscore.Hbond>
1.9118

> <Gold.Chemscore.Metal>
0.0000

> <Gold.Chemscore.Lipo>
87.1952

> <Gold.Chemscore.Internal_Hbond>
0.0000

> <Gold.Chemscore.DEClash>
0.7736

> <Gold.Chemscore.DEInternal>
2.6909

> <Gold.Chemscore.Rot>
2.1716

> <Gold.Chemscore.Internal.Correction>
   9.000000E+99

> <Gold.Chemscore.Hbonds>
donor molecule, donor type, donor heavy atom, donor atom, acceptor molecule, acceptor atom, score
      L1  H     4    45       P1  7948  0.99
      P1  H  7997  8008       L1    24  0.88

> <Gold.Chemscore.Hbond.Weighted>
-6.3853

> <Gold.Chemscore.Metal.Weighted>
-0.0000

> <Gold.Chemscore.Lipo.Weighted>
-10.2018

> <Gold.Chemscore.Internal_Hbond.Weighted>
0.0000

> <Gold.Chemscore.DEClash.Weighted>
0.7736

> <Gold.Chemscore.DEInternal.Weighted>
2.6909

> <Gold.Chemscore.Rot.Weighted>
5.5592

> <Gold.Chemscore.Internal.Correction.Weighted>
   9.000000E+99

> <Gold.Protein.RotatedTorsions>
[ 6907 6896 6895 6894 ] final -170.21 input  -60.11 | X-H torsion
[ 7974 7965 7964 7962 ] final -119.91 input  175.53 | X-H torsion
[ 8008 7997 7996 7995 ] final  -71.70 input   59.86 | X-H torsion
[ 10167 10162 10161 10158 ] final  140.45 input  -65.29 | X-H torsion
[ 10718 10713 10712 10709 ] final  138.44 input   66.30 | X-H torsion
[ 10763 10752 10751 10750 ] final -130.50 input  -60.55 | X-H torsion
[ 11005 11000 10999 10996 ] final  -94.78 input  -57.11 | X-H torsion

> <Gold.Protein.ActiveResidues>
 VAL166  LYS551  ARG553  GLY616  TRP617  ASP618  TYR619  PRO620  LYS621  CYS622 
 ASP623  PHE694  ASN695  SER759  ASP760  ASP761  ALA762  ILE779  LEU786  VAL792 
 PHE793  MET794  SER795  GLU796  ALA797  LYS798  CYS799  TRP800  GLU811  SER814 

> <Gold.Protein.RotatedAtoms>
  151.5040  133.3498  159.2873 H   0  0  0  0  0  0  0  0  0  0  0  0  # atno 6907 bound_to 6896
  150.8754  134.8138  159.7197 H   0  0  0  0  0  0  0  0  0  0  0  0  # atno 6908 bound_to 6896
  152.4727  134.4931  159.9753 H   0  0  0  0  0  0  0  0  0  0  0  0  # atno 6909 bound_to 6896
  145.0572  140.8263  143.4174 H   0  0  0  0  0  0  0  0  0  0  0  0  # atno 7974 bound_to 7965
  154.5108  140.0811  156.7985 H   0  0  0  0  0  0  0  0  0  0  0  0  # atno 8008 bound_to 7997
  155.3790  140.3427  155.4228 H   0  0  0  0  0  0  0  0  0  0  0  0  # atno 8009 bound_to 7997
  156.1570  140.1576  156.8663 H   0  0  0  0  0  0  0  0  0  0  0  0  # atno 8010 bound_to 7997
  139.5048  144.6233  151.5999 H   0  0  0  0  0  0  0  0  0  0  0  0  # atno 10167 bound_to 10162
  157.4253  131.1043  151.0310 H   0  0  0  0  0  0  0  0  0  0  0  0  # atno 10718 bound_to 10713
  154.8755  135.3860  154.4093 H   0  0  0  0  0  0  0  0  0  0  0  0  # atno 10763 bound_to 10752
  153.4809  135.7030  153.5944 H   0  0  0  0  0  0  0  0  0  0  0  0  # atno 10764 bound_to 10752
  153.4360  135.3867  155.2167 H   0  0  0  0  0  0  0  0  0  0  0  0  # atno 10765 bound_to 10752
  141.1461  133.7980  157.0344 H   0  0  0  0  0  0  0  0  0  0  0  0  # atno 11005 bound_to 11000
  145.1453  139.2547  143.5469 LP  0  0  0  0  0  0  0  0  0  0  0  0  # atno 17320 bound_to 7965
  146.3522  140.1142  142.8602 LP  0  0  0  0  0  0  0  0  0  0  0  0  # atno 17321 bound_to 7965
  140.5942  143.9726  150.6344 LP  0  0  0  0  0  0  0  0  0  0  0  0  # atno 17342 bound_to 10162
  140.2916  143.3320  152.1057 LP  0  0  0  0  0  0  0  0  0  0  0  0  # atno 17343 bound_to 10162
  157.1226  130.6068  149.5509 LP  0  0  0  0  0  0  0  0  0  0  0  0  # atno 17370 bound_to 10713
  155.9894  130.4941  150.7213 LP  0  0  0  0  0  0  0  0  0  0  0  0  # atno 17371 bound_to 10713
  140.0733  134.9690  157.1503 LP  0  0  0  0  0  0  0  0  0  0  0  0  # atno 17394 bound_to 11000
  140.3680  134.2421  155.7180 LP  0  0  0  0  0  0  0  0  0  0  0  0  # atno 17395 bound_to 11000

$$$$
