AV-unprocessed.smi:287|AV-procd|sdf|2195|dock4
  -GOLD-   2262021593D 1   1.00000     0.00000
 Structure written by MMmdl.
 55 58  0  0  0  0  0  0  0  0  1 V2000
  153.1722  141.5894  160.1111 C   0  0  0  0  0  0  0  0  0  0  0  0
  152.7081  140.5500  159.1493 C   0  0  0  0  0  0  0  0  0  0  0  0
  152.6884  139.1859  159.1707 C   0  0  0  0  0  0  0  0  0  0  0  0
  152.1243  138.7481  157.9347 C   0  0  0  0  0  0  0  0  0  0  0  0
  151.8925  137.3057  157.5040 C   0  0  1  0  0  0  0  0  0  0  0  0
  153.2364  136.5612  157.4500 C   0  0  0  0  0  0  0  0  0  0  0  0
  151.0963  136.5853  158.4254 O   0  0  0  0  0  0  0  0  0  0  0  0
  151.1695  137.1945  156.1416 C   0  0  0  0  0  0  0  0  0  0  0  0
  150.9038  135.8158  155.7512 N   0  0  0  0  0  0  0  0  0  0  0  0
  149.6401  135.3638  155.6114 C   0  0  0  0  0  0  0  0  0  0  0  0
  148.7446  135.8675  156.4922 N   0  0  0  0  0  0  0  0  0  0  0  0
  147.4666  135.4883  156.4373 C   0  0  0  0  0  0  0  0  0  0  0  0
  146.8888  134.6335  155.5938 N   0  0  0  0  0  0  0  0  0  0  0  0
  147.7785  134.1119  154.6997 C   0  0  0  0  0  0  0  0  0  0  0  0
  149.1698  134.4243  154.6454 C   0  0  0  0  0  0  0  0  0  0  0  0
  149.7630  133.6996  153.6197 N   0  0  0  0  0  0  0  0  0  0  0  0
  148.7852  133.0071  153.1063 C   0  0  0  0  0  0  0  0  0  0  0  0
  147.5491  133.1998  153.6804 N   0  0  0  0  0  0  0  0  0  0  0  0
  146.2804  132.4927  153.2828 C   0  0  1  0  0  0  0  0  0  0  0  0
  145.3636  133.4457  152.8507 O   0  0  0  0  0  0  0  0  0  0  0  0
  145.4257  133.5648  151.4369 C   0  0  2  0  0  0  0  0  0  0  0  0
  144.1044  134.1430  150.9080 C   0  0  0  0  0  0  0  0  0  0  0  0
  143.0219  133.3404  151.3287 O   0  0  0  0  0  0  0  0  0  0  0  0
  145.6863  132.1201  150.9811 C   0  0  1  0  0  0  0  0  0  0  0  0
  146.4571  132.1101  149.7964 O   0  0  0  0  0  0  0  0  0  0  0  0
  146.4587  131.4789  152.1389 C   0  0  2  0  0  0  0  0  0  0  0  0
  145.8859  130.2301  152.4711 O   0  0  0  0  0  0  0  0  0  0  0  0
  151.8205  139.9055  157.2600 C   0  0  0  0  0  0  0  0  0  0  0  0
  151.1911  140.1955  155.9374 C   0  0  0  0  0  0  0  0  0  0  0  0
  152.1775  141.0020  157.9851 O   0  0  0  0  0  0  0  0  0  0  0  0
  145.9372  132.0364  154.2125 H   0  0  0  0  0  0  0  0  0  0  0  0
  146.2596  134.2116  151.1635 H   0  0  0  0  0  0  0  0  0  0  0  0
  144.7402  131.6029  150.8109 H   0  0  0  0  0  0  0  0  0  0  0  0
  147.5146  131.3179  151.9239 H   0  0  0  0  0  0  0  0  0  0  0  0
  153.7240  141.1374  160.9355 H   0  0  0  0  0  0  0  0  0  0  0  0
  152.3256  142.1341  160.5290 H   0  0  0  0  0  0  0  0  0  0  0  0
  153.8289  142.3074  159.6195 H   0  0  0  0  0  0  0  0  0  0  0  0
  153.0468  138.5685  159.9812 H   0  0  0  0  0  0  0  0  0  0  0  0
  153.9162  137.0267  156.7354 H   0  0  0  0  0  0  0  0  0  0  0  0
  153.1065  135.5212  157.1486 H   0  0  0  0  0  0  0  0  0  0  0  0
  153.7313  136.5643  158.4222 H   0  0  0  0  0  0  0  0  0  0  0  0
  150.5630  137.2001  158.9056 H   0  0  0  0  0  0  0  0  0  0  0  0
  150.2082  137.7038  156.2203 H   0  0  0  0  0  0  0  0  0  0  0  0
  151.7355  137.7039  155.3604 H   0  0  0  0  0  0  0  0  0  0  0  0
  151.7125  135.2123  155.7111 H   0  0  0  0  0  0  0  0  0  0  0  0
  146.8131  135.9344  157.1724 H   0  0  0  0  0  0  0  0  0  0  0  0
  148.9426  132.3255  152.2830 H   0  0  0  0  0  0  0  0  0  0  0  0
  143.9457  135.1433  151.3120 H   0  0  0  0  0  0  0  0  0  0  0  0
  144.1145  134.2291  149.8211 H   0  0  0  0  0  0  0  0  0  0  0  0
  142.2835  133.5099  150.7642 H   0  0  0  0  0  0  0  0  0  0  0  0
  147.1713  131.5013  149.9087 H   0  0  0  0  0  0  0  0  0  0  0  0
  146.3722  129.5505  152.0296 H   0  0  0  0  0  0  0  0  0  0  0  0
  150.2659  139.6316  155.8178 H   0  0  0  0  0  0  0  0  0  0  0  0
  151.8624  139.9227  155.1232 H   0  0  0  0  0  0  0  0  0  0  0  0
  150.9527  141.2547  155.8366 H   0  0  0  0  0  0  0  0  0  0  0  0
  1  2  1  0  0  0  0
  1 35  1  0  0  0  0
  1 36  1  0  0  0  0
  1 37  1  0  0  0  0
  2 30  1  0  0  0  0
  2  3  2  0  0  0  0
  3  4  1  0  0  0  0
  3 38  1  0  0  0  0
  4  5  1  0  0  0  0
  4 28  2  0  0  0  0
  5  6  1  0  0  0  0
  5  7  1  0  0  0  0
  5  8  1  0  0  0  0
  6 39  1  0  0  0  0
  6 40  1  0  0  0  0
  6 41  1  0  0  0  0
  7 42  1  0  0  0  0
  8  9  1  0  0  0  0
  8 43  1  0  0  0  0
  8 44  1  0  0  0  0
  9 10  1  0  0  0  0
  9 45  1  0  0  0  0
 10 15  1  0  0  0  0
 10 11  2  0  0  0  0
 11 12  1  0  0  0  0
 12 13  2  0  0  0  0
 12 46  1  0  0  0  0
 13 14  1  0  0  0  0
 14 18  1  0  0  0  0
 14 15  2  0  0  0  0
 15 16  1  0  0  0  0
 16 17  2  0  0  0  0
 17 18  1  0  0  0  0
 17 47  1  0  0  0  0
 18 19  1  0  0  0  0
 19 31  1  0  0  0  0
 19 26  1  0  0  0  0
 19 20  1  0  0  0  0
 20 21  1  0  0  0  0
 21 32  1  0  0  0  0
 21 22  1  0  0  0  0
 21 24  1  0  0  0  0
 22 23  1  0  0  0  0
 22 48  1  0  0  0  0
 22 49  1  0  0  0  0
 23 50  1  0  0  0  0
 24 33  1  0  0  0  0
 24 25  1  0  0  0  0
 24 26  1  0  0  0  0
 25 51  1  0  0  0  0
 26 34  1  0  0  0  0
 26 27  1  0  0  0  0
 27 52  1  0  0  0  0
 28 29  1  0  0  0  0
 28 30  1  0  0  0  0
 29 53  1  0  0  0  0
 29 54  1  0  0  0  0
 29 55  1  0  0  0  0
M  END
> <s_m_source_file>
AV-unprocessed.smi

> <i_m_source_file_index>
287

> <i_lp_mmshare_version>
43012

> <i_f3d_flags>
0

> <s_epik_input>
W0NIM11jMVtjSF1jKGMobzEpW0NIM10pW0NAQF0oW0NIM10pKFtPSF0pW0NIMl1bTkhdYyhuW2NIXW4yKWMoYzIzKW5bY0hdbjNbQ0BASF00T1tDQEhdKFtDSDJdW09IXSlbQ0BASF0oW09IXSlbQ0BIXTRbT0hd

> <s_epik_cmdline>
J2VwaWtfcHl0aG9uJywgJy1waCcsICc3LjAnLCAnLXRuJywgJzgnLCAnLW1hJywgJzIwMCcsICctbWV0YWxfYmluZGluZycsICctaW1hZScsICc8aW5maWxlLm1hZT4nLCAnLW9tYWUnLCAnPG91dGZpbGUubWFlPic=

> <r_lp_tautomer_probability>
1

> <r_epik_Ionization_Penalty>
0.000992612

> <r_epik_Ionization_Penalty_Charging>
0

> <r_epik_Ionization_Penalty_Neutral>
0.000992612

> <r_epik_State_Penalty>
-0

> <r_epik_Charging_Adjusted_Penalty>
0

> <i_epik_Tot_Q>
0

> <i_epik_Tot_abs_Q>
0

> <r_epik_Metal_State_Penalty>
-0

> <b_epik_Metal_Only>
0

> <s_epik_Chemistry_Notes>
This compound contains an acetal/aminal-like group ( X-CH(R)-Y where X, Y are N, S, or O) that may be acid/base labile, releasing an aldehyde.

> <s_lp_Force_Field>
OPLS_2005

> <r_lp_Energy>
36.8397

> <b_lp_Chiralities_Consistent>
1

> <s_lp_Variant>
AV-unprocessed.smi:287-19

> <Gold.Version>
5.8.1

> <Gold.Id.Protein>
6NUR|6NUR_protein|mol2

> <Gold.PLP.Fitness>
49.3641

> <Gold.PLP.PLP>
-38.2571

> <Gold.PLP.part.hbond>
-3.0000

> <Gold.PLP.part.metal>
0.0000

> <Gold.PLP.part.buried>
-7.3934

> <Gold.PLP.part.nonpolar>
-28.4853

> <Gold.PLP.part.repulsive>
0.4322

> <Gold.PLP.ligand.clash>
0.0000

> <Gold.PLP.ligand.torsion>
0.3171

> <Gold.PLP.Chemscore.Hbond>
2.8720

> <Gold.PLP.Chemscore.CHOScore>
1.0000

> <Gold.PLP.Chemscore.Metal>
0.0000

> <Gold.Chemscore.Hbonds>
donor molecule, donor type, donor heavy atom, donor atom, acceptor molecule, acceptor atom, score
      L1  H    23    50       P1 10186  1.00
      L1  H    25    51       P1 10747  1.00
      P1  H  6896  6909       L1     7  0.62
      L1  C    17    47       P1 10747  1.00

> <Gold.PLP.Chemscore.Internal.Correction>
0.1252

> <Gold.Rescore>
     Score         DG    S(hbond)    S(metal)    S(lipo)     H(rot)  DE(clash)    DE(int)     intcor
      9.87     -11.23       2.91        0.00      81.29       5.27       0.05       1.31       ----

> <Gold.Chemscore.Fitness>
9.8690

> <Gold.Chemscore.DG>
-11.2270

> <Gold.Chemscore.ZeroCoef>
-5.4800

> <Gold.Chemscore.Hbond>
2.9103

> <Gold.Chemscore.Metal>
0.0000

> <Gold.Chemscore.Lipo>
81.2881

> <Gold.Chemscore.Internal_Hbond>
0.0000

> <Gold.Chemscore.DEClash>
0.0485

> <Gold.Chemscore.DEInternal>
1.3095

> <Gold.Chemscore.Rot>
5.2672

> <Gold.Chemscore.Internal.Correction>
   9.000000E+99

> <Gold.Chemscore.Hbonds>
donor molecule, donor type, donor heavy atom, donor atom, acceptor molecule, acceptor atom, score
      L1  H    23    50       P1 10186  0.88
      L1  H    25    51       P1 10747  0.99
      P1  H  6896  6909       L1     7  0.12

> <Gold.Chemscore.Hbond.Weighted>
-9.7202

> <Gold.Chemscore.Metal.Weighted>
-0.0000

> <Gold.Chemscore.Lipo.Weighted>
-9.5107

> <Gold.Chemscore.Internal_Hbond.Weighted>
0.0000

> <Gold.Chemscore.DEClash.Weighted>
0.0485

> <Gold.Chemscore.DEInternal.Weighted>
1.3095

> <Gold.Chemscore.Rot.Weighted>
13.4839

> <Gold.Chemscore.Internal.Correction.Weighted>
   9.000000E+99

> <Gold.Protein.RotatedTorsions>
[ 6907 6896 6895 6894 ] final   88.51 input  -60.11 | X-H torsion
[ 7974 7965 7964 7962 ] final  -27.54 input  175.53 | X-H torsion
[ 8008 7997 7996 7995 ] final -171.65 input   59.86 | X-H torsion
[ 10167 10162 10161 10158 ] final   60.51 input  -65.29 | X-H torsion
[ 10718 10713 10712 10709 ] final -164.46 input   66.30 | X-H torsion
[ 10763 10752 10751 10750 ] final  -13.52 input  -60.55 | X-H torsion
[ 11005 11000 10999 10996 ] final   34.64 input  -57.11 | X-H torsion

> <Gold.Protein.ActiveResidues>
 VAL166  LYS551  ARG553  GLY616  TRP617  ASP618  TYR619  PRO620  LYS621  CYS622 
 ASP623  PHE694  ASN695  SER759  ASP760  ASP761  ALA762  ILE779  LEU786  VAL792 
 PHE793  MET794  SER795  GLU796  ALA797  LYS798  CYS799  TRP800  GLU811  SER814 

> <Gold.Protein.RotatedAtoms>
  152.5426  134.2110  159.8749 H   0  0  0  0  0  0  0  0  0  0  0  0  # atno 6907 bound_to 6896
  151.2093  133.4558  159.2605 H   0  0  0  0  0  0  0  0  0  0  0  0  # atno 6908 bound_to 6896
  151.0913  134.9930  159.8459 H   0  0  0  0  0  0  0  0  0  0  0  0  # atno 6909 bound_to 6896
  146.1351  140.5165  142.8676 H   0  0  0  0  0  0  0  0  0  0  0  0  # atno 7974 bound_to 7965
  155.9343  140.1097  157.1107 H   0  0  0  0  0  0  0  0  0  0  0  0  # atno 8008 bound_to 7997
  154.4077  140.1231  156.4909 H   0  0  0  0  0  0  0  0  0  0  0  0  # atno 8009 bound_to 7997
  155.7041  140.3471  155.4948 H   0  0  0  0  0  0  0  0  0  0  0  0  # atno 8010 bound_to 7997
  140.1648  144.4334  150.6691 H   0  0  0  0  0  0  0  0  0  0  0  0  # atno 10167 bound_to 10162
  156.6394  130.8962  151.2993 H   0  0  0  0  0  0  0  0  0  0  0  0  # atno 10718 bound_to 10713
  153.5145  135.7016  153.5763 H   0  0  0  0  0  0  0  0  0  0  0  0  # atno 10763 bound_to 10752
  153.3839  135.3913  155.1876 H   0  0  0  0  0  0  0  0  0  0  0  0  # atno 10764 bound_to 10752
  154.8700  135.3842  154.4629 H   0  0  0  0  0  0  0  0  0  0  0  0  # atno 10765 bound_to 10752
  140.2507  134.3306  155.7891 H   0  0  0  0  0  0  0  0  0  0  0  0  # atno 11005 bound_to 11000
  144.7731  140.5680  143.6657 LP  0  0  0  0  0  0  0  0  0  0  0  0  # atno 17320 bound_to 7965
  145.5175  139.1477  143.3571 LP  0  0  0  0  0  0  0  0  0  0  0  0  # atno 17321 bound_to 7965
  140.6620  143.2255  151.5834 LP  0  0  0  0  0  0  0  0  0  0  0  0  # atno 17342 bound_to 10162
  139.5364  144.2768  152.1261 LP  0  0  0  0  0  0  0  0  0  0  0  0  # atno 17343 bound_to 10162
  157.7176  130.9516  150.1313 LP  0  0  0  0  0  0  0  0  0  0  0  0  # atno 17370 bound_to 10713
  156.2171  130.3671  149.8600 LP  0  0  0  0  0  0  0  0  0  0  0  0  # atno 17371 bound_to 10713
  141.2201  133.7352  156.9033 LP  0  0  0  0  0  0  0  0  0  0  0  0  # atno 17394 bound_to 11000
  140.1560  134.9198  157.2654 LP  0  0  0  0  0  0  0  0  0  0  0  0  # atno 17395 bound_to 11000

$$$$
