#       Name:                AV-unprocessed.smi:607
#       Creating user name   scv26
#       Creation time:       Thu Mar 26 23:56:10 2020


#       File generated by GOLD software.
#

@<TRIPOS>MOLECULE
AV-unprocessed.smi:607
    46    47     1
SMALL
NO_CHARGES


@<TRIPOS>ATOM
      1 ****        -1.3679   2.9089  -2.1144 C.3            1 S1                 0.0000
      2 ****        -1.7978   1.5032  -1.8058 C.2            1 S1                 0.0000
      3 ****        -3.0745   1.2562  -1.5685 N.2            1 S1                 0.0000
      4 ****        -3.1294  -0.0680  -1.3287 N.pl3          1 S1                 0.0000
      5 ****        -4.4082  -0.6790  -1.0218 C.3            1 S1                 0.0000
      6 ****        -1.8853  -0.6619  -1.4204 C.2            1 S1                 0.0000
      7 ****        -1.6956  -2.1290  -1.1917 C.3            1 S1                 0.0000
      8 ****        -0.9869   0.3327  -1.7202 C.2            1 S1                 0.0000
      9 ****         0.5147   0.2635  -1.9206 C.3            1 S1                 0.0000
     10 ****         0.8738  -0.4135  -3.2564 C.3            1 S1                 0.0000
     11 ****         1.1838  -0.3982  -0.7041 C.2            1 S1                 0.0000
     12 ****         1.8485  -1.4270  -0.8298 O.2            1 S1                 0.0000
     13 ****         0.9883   0.2052   0.4801 N.am           1 S1                 0.0000
     14 ****         1.4458  -0.2841   1.7794 C.3            1 S1                 0.0000
     15 ****         0.9139  -1.6288   2.0751 C.1            1 S1                 0.0000
     16 ****         0.4954  -2.6825   2.3067 N.1            1 S1                 0.0000
     17 ****         2.9820  -0.2566   1.8968 C.3            1 S1                 0.0000
     18 ****         3.3066   0.0255   3.3709 C.3            1 S1                 0.0000
     19 ****         1.9937   0.4665   4.0273 C.3            1 S1                 0.0000
     20 ****         1.0158   0.6998   2.8751 C.3            1 S1                 0.0000
     21 ****        -0.7361   3.3054  -1.3195 H              1 S1                 0.0000
     22 ****        -2.2211   3.5791  -2.2253 H              1 S1                 0.0000
     23 ****        -0.7976   2.9462  -3.0427 H              1 S1                 0.0000
     24 ****        -4.3102  -1.3183  -0.1441 H              1 S1                 0.0000
     25 ****        -4.7376  -1.2821  -1.8682 H              1 S1                 0.0000
     26 ****        -5.1602   0.0842  -0.8157 H              1 S1                 0.0000
     27 ****        -0.7568  -2.4816  -1.6158 H              1 S1                 0.0000
     28 ****        -2.4978  -2.7064  -1.6510 H              1 S1                 0.0000
     29 ****        -1.6846  -2.3526  -0.1249 H              1 S1                 0.0000
     30 ****         0.9265   1.2723  -1.9643 H              1 S1                 0.0000
     31 ****         0.4967  -1.4347  -3.3115 H              1 S1                 0.0000
     32 ****         1.9535  -0.4486  -3.4067 H              1 S1                 0.0000
     33 ****         0.4480   0.1386  -4.0946 H              1 S1                 0.0000
     34 ****         0.4299   1.0463   0.4873 H              1 S1                 0.0000
     35 ****         3.4420  -1.1814   1.5460 H              1 S1                 0.0000
     36 ****         3.3908   0.5526   1.2892 H              1 S1                 0.0000
     37 ****         3.6955  -0.8663   3.8635 H              1 S1                 0.0000
     38 ****         4.0689   0.8010   3.4525 H              1 S1                 0.0000
     39 ****         1.6195  -0.3340   4.6664 H              1 S1                 0.0000
     40 ****         2.1160   1.3532   4.6498 H              1 S1                 0.0000
     41 ****         1.1235   1.7274   2.5233 H              1 S1                 0.0000
     42 ****        -0.0235   0.5668   3.1782 H              1 S1                 0.0000
     43 ****        -3.8324   1.9086  -1.5673 LP             1 S1                 0.0000
     44 ****         1.9591  -1.8437  -1.7321 LP             1 S1                 0.0000
     45 ****         2.2776  -1.8459  -0.0296 LP             1 S1                 0.0000
     46 ****         0.1337  -3.5931   2.5068 LP             1 S1                 0.0000
@<TRIPOS>BOND
    1    1    2 1     
    2    1   21 1     
    3    1   22 1     
    4    1   23 1     
    5    2    8 1     
    6    2    3 2     
    7    3    4 1     
    8    4    5 1     
    9    4    6 1     
   10    5   24 1     
   11    5   25 1     
   12    5   26 1     
   13    6    7 1     
   14    6    8 2     
   15    7   27 1     
   16    7   28 1     
   17    7   29 1     
   18    8    9 1     
   19    9   10 1     
   20    9   11 1     
   21    9   30 1     
   22   10   31 1     
   23   10   32 1     
   24   10   33 1     
   25   11   12 2     
   26   11   13 am    
   27   13   14 1     
   28   13   34 1     
   29   14   20 1     
   30   14   15 1     
   31   14   17 1     
   32   15   16 3     
   33   17   18 1     
   34   17   35 1     
   35   17   36 1     
   36   18   19 1     
   37   18   37 1     
   38   18   38 1     
   39   19   20 1     
   40   19   39 1     
   41   19   40 1     
   42   20   41 1     
   43   20   42 1     
   44    3   43 1     
   45   12   44 1     
   46   12   45 1     
   47   16   46 1     
@<TRIPOS>SUBSTRUCTURE
      1 S1             1
@<TRIPOS>SET
LONE_PAIRS      STATIC     ATOMS    <user>   **** ""
4 43 44 45 46
DONOR_HYDROGENS      STATIC     ATOMS    <user>   **** ""
1 34
ATOM$BLUE        STATIC     ATOMS    COLORGROUP SYSTEM
4 43 44 45 46
ATOM$RED        STATIC     ATOMS    COLORGROUP SYSTEM
1 34
