AV-unprocessed.smi:229|AV-procd|sdf|1758|dock2
  -GOLD-   2262020283D 1   1.00000     0.00000
 Structure written by MMmdl.
 58 62  0  0  0  0  0  0  0  0  1 V2000
  151.7238  143.9880  157.8579 C   0  0  0  0  0  0  0  0  0  0  0  0
  151.2956  142.6905  158.5547 C   0  0  0  0  0  0  0  0  0  0  0  0
  150.6606  141.6760  157.5920 C   0  0  1  0  0  0  0  0  0  0  0  0
  150.3521  140.3419  158.2906 C   0  0  0  0  0  0  0  0  0  0  0  0
  149.6562  139.4501  157.3736 N   0  0  0  0  0  0  0  0  0  0  0  0
  149.6202  138.1174  157.6338 C   0  0  0  0  0  0  0  0  0  0  0  0
  149.2609  137.7419  158.8893 N   0  0  0  0  0  0  0  0  0  0  0  0
  149.1873  136.4494  159.2181 C   0  0  0  0  0  0  0  0  0  0  0  0
  149.4280  135.3807  158.4579 N   0  0  0  0  0  0  0  0  0  0  0  0
  149.7949  135.7459  157.1968 C   0  0  0  0  0  0  0  0  0  0  0  0
  149.9170  137.0768  156.7011 C   0  0  0  0  0  0  0  0  0  0  0  0
  150.3247  137.0380  155.3708 N   0  0  0  0  0  0  0  0  0  0  0  0
  150.4254  135.7667  155.0962 C   0  0  0  0  0  0  0  0  0  0  0  0
  150.1227  134.9202  156.1366 N   0  0  0  0  0  0  0  0  0  0  0  0
  150.1476  133.4681  156.1150 C   0  0  0  0  0  0  0  0  0  0  0  0
  149.0550  132.8740  155.2036 C   0  0  1  0  0  0  0  0  0  0  0  0
  149.3128  133.2499  153.8636 O   0  0  0  0  0  0  0  0  0  0  0  0
  148.9966  131.3371  155.2853 C   0  0  2  0  0  0  0  0  0  0  0  0
  150.3387  130.6401  155.0591 C   0  0  0  0  0  0  0  0  0  0  0  0
  149.8961  129.2544  154.6493 C   0  0  0  0  0  0  0  0  0  0  0  0
  148.6567  129.5511  153.8085 C   0  0  0  0  0  0  0  0  0  0  0  0
  148.1612  130.8106  154.2575 O   0  0  0  0  0  0  0  0  0  0  0  0
  148.4471  140.0318  156.7996 C   0  0  0  0  0  0  0  0  0  0  0  0
  148.7471  141.4040  156.1520 C   0  0  2  0  0  0  0  0  0  0  0  0
  147.4569  142.1250  155.7731 C   0  0  0  0  0  0  0  0  0  0  0  0
  147.2788  141.7783  154.3029 C   0  0  0  0  0  0  0  0  0  0  0  0
  148.6044  141.8551  153.8135 O   0  0  0  0  0  0  0  0  0  0  0  0
  149.4700  141.2855  154.7891 C   0  0  0  0  0  0  0  0  0  0  0  0
  149.4465  142.2331  157.0852 O   0  0  0  0  0  0  0  0  0  0  0  0
  152.1843  144.6751  158.5678 H   0  0  0  0  0  0  0  0  0  0  0  0
  150.8704  144.4974  157.4094 H   0  0  0  0  0  0  0  0  0  0  0  0
  152.4490  143.7896  157.0682 H   0  0  0  0  0  0  0  0  0  0  0  0
  152.1708  142.2420  159.0256 H   0  0  0  0  0  0  0  0  0  0  0  0
  150.5981  142.9211  159.3608 H   0  0  0  0  0  0  0  0  0  0  0  0
  151.3594  141.4923  156.7754 H   0  0  0  0  0  0  0  0  0  0  0  0
  151.2844  139.8855  158.6253 H   0  0  0  0  0  0  0  0  0  0  0  0
  149.7305  140.5120  159.1706 H   0  0  0  0  0  0  0  0  0  0  0  0
  148.8904  136.2424  160.2358 H   0  0  0  0  0  0  0  0  0  0  0  0
  150.7226  135.4100  154.1207 H   0  0  0  0  0  0  0  0  0  0  0  0
  151.1366  133.1405  155.7911 H   0  0  0  0  0  0  0  0  0  0  0  0
  150.0225  133.1135  157.1387 H   0  0  0  0  0  0  0  0  0  0  0  0
  148.0859  133.2862  155.4881 H   0  0  0  0  0  0  0  0  0  0  0  0
  150.2121  133.5328  153.7995 H   0  0  0  0  0  0  0  0  0  0  0  0
  148.5845  131.0224  156.2459 H   0  0  0  0  0  0  0  0  0  0  0  0
  150.8871  131.1141  154.2435 H   0  0  0  0  0  0  0  0  0  0  0  0
  150.9741  130.6398  155.9453 H   0  0  0  0  0  0  0  0  0  0  0  0
  150.6609  128.7016  154.1030 H   0  0  0  0  0  0  0  0  0  0  0  0
  149.6211  128.6759  155.5324 H   0  0  0  0  0  0  0  0  0  0  0  0
  148.9186  129.6384  152.7537 H   0  0  0  0  0  0  0  0  0  0  0  0
  147.9003  128.7718  153.9055 H   0  0  0  0  0  0  0  0  0  0  0  0
  147.9865  139.3707  156.0646 H   0  0  0  0  0  0  0  0  0  0  0  0
  147.7222  140.1518  157.6060 H   0  0  0  0  0  0  0  0  0  0  0  0
  146.5989  141.8433  156.3842 H   0  0  0  0  0  0  0  0  0  0  0  0
  147.5878  143.2042  155.8678 H   0  0  0  0  0  0  0  0  0  0  0  0
  146.8945  140.7646  154.1789 H   0  0  0  0  0  0  0  0  0  0  0  0
  146.6156  142.4694  153.7824 H   0  0  0  0  0  0  0  0  0  0  0  0
  150.4217  141.8151  154.7619 H   0  0  0  0  0  0  0  0  0  0  0  0
  149.6643  140.2437  154.5308 H   0  0  0  0  0  0  0  0  0  0  0  0
  1  2  1  0  0  0  0
  1 30  1  0  0  0  0
  1 31  1  0  0  0  0
  1 32  1  0  0  0  0
  2  3  1  0  0  0  0
  2 33  1  0  0  0  0
  2 34  1  0  0  0  0
  3 29  1  0  0  0  0
  3  4  1  0  0  0  0
  3 35  1  0  0  0  0
  4  5  1  0  0  0  0
  4 36  1  0  0  0  0
  4 37  1  0  0  0  0
  5  6  1  0  0  0  0
  5 23  1  0  0  0  0
  6 11  1  0  0  0  0
  6  7  2  0  0  0  0
  7  8  1  0  0  0  0
  8  9  2  0  0  0  0
  8 38  1  0  0  0  0
  9 10  1  0  0  0  0
 10 14  1  0  0  0  0
 10 11  2  0  0  0  0
 11 12  1  0  0  0  0
 12 13  2  0  0  0  0
 13 14  1  0  0  0  0
 13 39  1  0  0  0  0
 14 15  1  0  0  0  0
 15 16  1  0  0  0  0
 15 40  1  0  0  0  0
 15 41  1  0  0  0  0
 16 17  1  0  0  0  0
 16 18  1  0  0  0  0
 16 42  1  0  0  0  0
 17 43  1  0  0  0  0
 18 22  1  0  0  0  0
 18 19  1  0  0  0  0
 18 44  1  0  0  0  0
 19 20  1  0  0  0  0
 19 45  1  0  0  0  0
 19 46  1  0  0  0  0
 20 21  1  0  0  0  0
 20 47  1  0  0  0  0
 20 48  1  0  0  0  0
 21 22  1  0  0  0  0
 21 49  1  0  0  0  0
 21 50  1  0  0  0  0
 23 24  1  0  0  0  0
 23 51  1  0  0  0  0
 23 52  1  0  0  0  0
 24 28  1  0  0  0  0
 24 25  1  0  0  0  0
 24 29  1  0  0  0  0
 25 26  1  0  0  0  0
 25 53  1  0  0  0  0
 25 54  1  0  0  0  0
 26 27  1  0  0  0  0
 26 55  1  0  0  0  0
 26 56  1  0  0  0  0
 27 28  1  0  0  0  0
 28 57  1  0  0  0  0
 28 58  1  0  0  0  0
M  END
> <s_m_source_file>
AV-unprocessed.smi

> <i_m_source_file_index>
229

> <i_lp_mmshare_version>
43012

> <i_f3d_flags>
0

> <s_epik_input>
W0NIMl0xT1tDSDJdW0NIMl1bQ0BdMTJbQ0gyXU4oW0NIMl1bQ0BIXShPMilbQ0gyXVtDSDNdKWMobltjSF1uMyljKGMzNCluW2NIXW40W0NIMl1bQ0BIXShbT0hdKVtDQEBIXTVbQ0gyXVtDSDJdW0NIMl1PNQ==

> <s_epik_cmdline>
J2VwaWtfcHl0aG9uJywgJy1waCcsICc3LjAnLCAnLXRuJywgJzgnLCAnLW1hJywgJzIwMCcsICctbWV0YWxfYmluZGluZycsICctaW1hZScsICc8aW5maWxlLm1hZT4nLCAnLW9tYWUnLCAnPG91dGZpbGUubWFlPic=

> <r_lp_tautomer_probability>
1

> <r_epik_Ionization_Penalty>
0.00318402

> <r_epik_Ionization_Penalty_Charging>
0

> <r_epik_Ionization_Penalty_Neutral>
0.00318402

> <r_epik_State_Penalty>
0.00215642

> <r_epik_Charging_Adjusted_Penalty>
0.00215642

> <i_epik_Tot_Q>
0

> <i_epik_Tot_abs_Q>
0

> <r_epik_Metal_State_Penalty>
-0

> <b_epik_Metal_Only>
0

> <s_lp_Force_Field>
OPLS_2005

> <r_lp_Energy>
55.1094

> <b_lp_Chiralities_Consistent>
1

> <s_lp_Variant>
AV-unprocessed.smi:229-12

> <Gold.Version>
5.8.1

> <Gold.Id.Protein>
6NUR|6NUR_protein|mol2

> <Gold.PLP.Fitness>
43.8536

> <Gold.PLP.PLP>
-38.0947

> <Gold.PLP.part.hbond>
-2.0000

> <Gold.PLP.part.metal>
0.0000

> <Gold.PLP.part.buried>
-4.9910

> <Gold.PLP.part.nonpolar>
-32.0272

> <Gold.PLP.part.repulsive>
1.2798

> <Gold.PLP.ligand.clash>
0.0000

> <Gold.PLP.ligand.torsion>
0.6554

> <Gold.PLP.Chemscore.Hbond>
1.5440

> <Gold.PLP.Chemscore.CHOScore>
0.6357

> <Gold.PLP.Chemscore.Metal>
0.0000

> <Gold.Chemscore.Hbonds>
donor molecule, donor type, donor heavy atom, donor atom, acceptor molecule, acceptor atom, score
      P1  H  6896  6907       L1     9  1.00
      P1  H  8011  8017       L1    27  0.51
      L1  C    13    39       P1  7949  0.31

> <Gold.PLP.Chemscore.Internal.Correction>
0.5307

> <Gold.Rescore>
     Score         DG    S(hbond)    S(metal)    S(lipo)     H(rot)  DE(clash)    DE(int)     intcor
     10.96     -12.65       1.09        0.00      83.96       2.46       0.10       1.59       ----

> <Gold.Chemscore.Fitness>
10.9565

> <Gold.Chemscore.DG>
-12.6517

> <Gold.Chemscore.ZeroCoef>
-5.4800

> <Gold.Chemscore.Hbond>
1.0908

> <Gold.Chemscore.Metal>
0.0000

> <Gold.Chemscore.Lipo>
83.9634

> <Gold.Chemscore.Internal_Hbond>
0.0000

> <Gold.Chemscore.DEClash>
0.1026

> <Gold.Chemscore.DEInternal>
1.5927

> <Gold.Chemscore.Rot>
2.4591

> <Gold.Chemscore.Internal.Correction>
   9.000000E+99

> <Gold.Chemscore.Hbonds>
donor molecule, donor type, donor heavy atom, donor atom, acceptor molecule, acceptor atom, score
      P1  H  6896  6907       L1     9  0.51
      P1  H  8011  8017       L1    27  0.28

> <Gold.Chemscore.Hbond.Weighted>
-3.6433

> <Gold.Chemscore.Metal.Weighted>
-0.0000

> <Gold.Chemscore.Lipo.Weighted>
-9.8237

> <Gold.Chemscore.Internal_Hbond.Weighted>
0.0000

> <Gold.Chemscore.DEClash.Weighted>
0.1026

> <Gold.Chemscore.DEInternal.Weighted>
1.5927

> <Gold.Chemscore.Rot.Weighted>
6.2953

> <Gold.Chemscore.Internal.Correction.Weighted>
   9.000000E+99

> <Gold.Protein.RotatedTorsions>
[ 6907 6896 6895 6894 ] final  -88.51 input  -60.11 | X-H torsion
[ 7974 7965 7964 7962 ] final  -58.80 input  175.53 | X-H torsion
[ 8008 7997 7996 7995 ] final -130.75 input   59.86 | X-H torsion
[ 10167 10162 10161 10158 ] final  106.81 input  -65.29 | X-H torsion
[ 10718 10713 10712 10709 ] final  -27.55 input   66.30 | X-H torsion
[ 10763 10752 10751 10750 ] final    9.35 input  -60.55 | X-H torsion
[ 11005 11000 10999 10996 ] final  -53.64 input  -57.11 | X-H torsion

> <Gold.Protein.ActiveResidues>
 VAL166  LYS551  ARG553  GLY616  TRP617  ASP618  TYR619  PRO620  LYS621  CYS622 
 ASP623  PHE694  ASN695  SER759  ASP760  ASP761  ALA762  ILE779  LEU786  VAL792 
 PHE793  MET794  SER795  GLU796  ALA797  LYS798  CYS799  TRP800  GLU811  SER814 

> <Gold.Protein.RotatedAtoms>
  150.6869  134.2731  159.4596 H   0  0  0  0  0  0  0  0  0  0  0  0  # atno 6907 bound_to 6896
  152.0652  134.9566  160.0584 H   0  0  0  0  0  0  0  0  0  0  0  0  # atno 6908 bound_to 6896
  152.0978  133.4199  159.4610 H   0  0  0  0  0  0  0  0  0  0  0  0  # atno 6909 bound_to 6896
  145.8350  140.8454  143.0064 H   0  0  0  0  0  0  0  0  0  0  0  0  # atno 7974 bound_to 7965
  155.3010  140.0453  157.3029 H   0  0  0  0  0  0  0  0  0  0  0  0  # atno 8008 bound_to 7997
  154.5487  140.2310  155.8488 H   0  0  0  0  0  0  0  0  0  0  0  0  # atno 8009 bound_to 7997
  156.1947  140.3041  155.9410 H   0  0  0  0  0  0  0  0  0  0  0  0  # atno 8010 bound_to 7997
  139.6978  144.7099  151.1237 H   0  0  0  0  0  0  0  0  0  0  0  0  # atno 10167 bound_to 10162
  156.4367  130.4456  149.7080 H   0  0  0  0  0  0  0  0  0  0  0  0  # atno 10718 bound_to 10713
  153.2150  135.6874  153.8068 H   0  0  0  0  0  0  0  0  0  0  0  0  # atno 10763 bound_to 10752
  153.7287  135.3256  155.3282 H   0  0  0  0  0  0  0  0  0  0  0  0  # atno 10764 bound_to 10752
  154.8241  135.4630  154.0973 H   0  0  0  0  0  0  0  0  0  0  0  0  # atno 10765 bound_to 10752
  141.0986  133.6621  156.4202 H   0  0  0  0  0  0  0  0  0  0  0  0  # atno 11005 bound_to 11000
  144.6737  140.0728  143.7472 LP  0  0  0  0  0  0  0  0  0  0  0  0  # atno 17320 bound_to 7965
  145.9528  139.2746  143.1202 LP  0  0  0  0  0  0  0  0  0  0  0  0  # atno 17321 bound_to 7965
  140.7701  143.5466  150.9251 LP  0  0  0  0  0  0  0  0  0  0  0  0  # atno 17342 bound_to 10162
  139.9147  143.6678  152.3108 LP  0  0  0  0  0  0  0  0  0  0  0  0  # atno 17343 bound_to 10162
  156.3961  130.7651  151.2656 LP  0  0  0  0  0  0  0  0  0  0  0  0  # atno 17370 bound_to 10713
  157.7507  131.0253  150.3915 LP  0  0  0  0  0  0  0  0  0  0  0  0  # atno 17371 bound_to 10713
  140.5079  134.6424  157.5273 LP  0  0  0  0  0  0  0  0  0  0  0  0  # atno 17394 bound_to 11000
  139.9830  134.7107  155.9825 LP  0  0  0  0  0  0  0  0  0  0  0  0  # atno 17395 bound_to 11000

$$$$
