AV-unprocessed.smi:1978|AV-procd|sdf|8011|dock2
  -GOLD-   2272010203D 1   1.00000     0.00000
 Structure written by MMmdl.
 44 45  0  0  0  0  0  0  0  0  3 V2000
  153.9189  141.5236  160.9028 C   0  0  0  0  0  0  0  0  0  0  0  0
  152.9746  141.5702  159.7513 C   0  0  0  0  0  0  0  0  0  0  0  0
  152.9577  140.9429  158.5375 C   0  0  0  0  0  0  0  0  0  0  0  0
  151.7713  141.4402  157.9354 C   0  0  0  0  0  0  0  0  0  0  0  0
  151.3876  141.0163  156.6359 N   0  0  0  0  0  0  0  0  0  0  0  0
  151.8076  139.9432  155.9415 C   0  0  0  0  0  0  0  0  0  0  0  0
  152.6393  139.1688  156.4297 O   0  0  0  0  0  0  0  0  0  0  0  0
  151.2241  139.8643  154.7137 N   0  5  0  0  0  0  0  0  0  0  0  0
  150.4887  138.7040  154.2070 C   0  0  0  0  0  0  0  0  0  0  0  0
  149.1178  138.5529  154.9269 C   0  0  1  0  0  0  0  0  0  0  0  0
  148.6291  139.8293  155.6585 C   0  0  0  0  0  0  0  0  0  0  0  0
  148.0839  137.9899  153.9902 N   0  3  2  0  0  0  0  0  0  0  0  0
  147.5406  138.9826  153.0077 C   0  0  0  0  0  0  0  0  0  0  0  0
  146.7164  138.3014  151.9088 C   0  0  0  0  0  0  0  0  0  0  0  0
  145.5543  137.5261  152.5286 C   0  0  0  0  0  0  0  0  0  0  0  0
  146.0978  136.5263  153.5525 C   0  0  0  0  0  0  0  0  0  0  0  0
  146.9783  137.1983  154.6324 C   0  0  1  0  0  0  0  0  0  0  0  0
  147.4725  136.0948  155.5937 C   0  0  0  0  0  0  0  0  0  0  0  0
  151.1244  142.2971  158.7120 N   0  0  0  0  0  0  0  0  0  0  0  0
  151.8926  142.3851  159.8791 O   0  0  0  0  0  0  0  0  0  0  0  0
  154.6349  140.7100  160.7855 H   0  0  0  0  0  0  0  0  0  0  0  0
  153.3814  141.3677  161.8382 H   0  0  0  0  0  0  0  0  0  0  0  0
  154.4759  142.4570  160.9825 H   0  0  0  0  0  0  0  0  0  0  0  0
  153.6771  140.2396  158.1458 H   0  0  0  0  0  0  0  0  0  0  0  0
  150.7145  141.6044  156.1676 H   0  0  0  0  0  0  0  0  0  0  0  0
  150.3300  138.7377  153.1285 H   0  0  0  0  0  0  0  0  0  0  0  0
  151.0645  137.7935  154.3776 H   0  0  0  0  0  0  0  0  0  0  0  0
  149.3145  137.8259  155.7084 H   0  0  0  0  0  0  0  0  0  0  0  0
  149.3073  140.1207  156.4623 H   0  0  0  0  0  0  0  0  0  0  0  0
  147.6575  139.6612  156.1233 H   0  0  0  0  0  0  0  0  0  0  0  0
  148.5318  140.6891  154.9935 H   0  0  0  0  0  0  0  0  0  0  0  0
  146.9131  139.7106  153.5236 H   0  0  0  0  0  0  0  0  0  0  0  0
  148.3444  139.5456  152.5336 H   0  0  0  0  0  0  0  0  0  0  0  0
  146.3355  139.0477  151.2109 H   0  0  0  0  0  0  0  0  0  0  0  0
  147.3510  137.6285  151.3304 H   0  0  0  0  0  0  0  0  0  0  0  0
  144.8606  138.2151  153.0122 H   0  0  0  0  0  0  0  0  0  0  0  0
  144.9917  137.0045  151.7538 H   0  0  0  0  0  0  0  0  0  0  0  0
  145.2602  136.0087  154.0215 H   0  0  0  0  0  0  0  0  0  0  0  0
  146.6769  135.7612  153.0329 H   0  0  0  0  0  0  0  0  0  0  0  0
  146.3551  137.8896  155.2018 H   0  0  0  0  0  0  0  0  0  0  0  0
  146.6632  135.4121  155.8540 H   0  0  0  0  0  0  0  0  0  0  0  0
  147.8333  136.4951  156.5405 H   0  0  0  0  0  0  0  0  0  0  0  0
  148.2685  135.5005  155.1435 H   0  0  0  0  0  0  0  0  0  0  0  0
  148.5958  137.3139  153.4412 H   0  0  0  0  0  0  0  0  0  0  0  0
  1  2  1  0  0  0  0
  1 21  1  0  0  0  0
  1 22  1  0  0  0  0
  1 23  1  0  0  0  0
  2 20  1  0  0  0  0
  2  3  2  0  0  0  0
  3  4  1  0  0  0  0
  3 24  1  0  0  0  0
  4  5  1  0  0  0  0
  4 19  2  0  0  0  0
  5  6  1  0  0  0  0
  5 25  1  0  0  0  0
  6  7  2  0  0  0  0
  6  8  1  0  0  0  0
  8  9  1  0  0  0  0
  9 10  1  0  0  0  0
  9 26  1  0  0  0  0
  9 27  1  0  0  0  0
 10 11  1  0  0  0  0
 10 12  1  0  0  0  0
 10 28  1  0  0  0  0
 11 29  1  0  0  0  0
 11 30  1  0  0  0  0
 11 31  1  0  0  0  0
 12 17  1  0  0  0  0
 12 13  1  0  0  0  0
 12 44  1  0  0  0  0
 13 14  1  0  0  0  0
 13 32  1  0  0  0  0
 13 33  1  0  0  0  0
 14 15  1  0  0  0  0
 14 34  1  0  0  0  0
 14 35  1  0  0  0  0
 15 16  1  0  0  0  0
 15 36  1  0  0  0  0
 15 37  1  0  0  0  0
 16 17  1  0  0  0  0
 16 38  1  0  0  0  0
 16 39  1  0  0  0  0
 17 18  1  0  0  0  0
 17 40  1  0  0  0  0
 18 41  1  0  0  0  0
 18 42  1  0  0  0  0
 18 43  1  0  0  0  0
 19 20  1  0  0  0  0
M  CHG  1   8  -1
M  CHG  1  12   1
M  END
> <s_m_source_file>
AV-unprocessed.smi

> <i_m_source_file_index>
1978

> <i_lp_mmshare_version>
43012

> <i_f3d_flags>
0

> <s_epik_input>
W0NIM11jMVtjSF1jKG5vMSlbTkhdQyg9TylbTkhdW0NIMl1bQ0BIXShbQ0gzXSlOMltDSDJdW0NIMl1bQ0gyXVtDSDJdW0NASF0yW0NIM10=

> <s_epik_cmdline>
J2VwaWtfcHl0aG9uJywgJy1waCcsICc3LjAnLCAnLXRuJywgJzgnLCAnLW1hJywgJzIwMCcsICctbWV0YWxfYmluZGluZycsICctaW1hZScsICc8aW5maWxlLm1hZT4nLCAnLW9tYWUnLCAnPG91dGZpbGUubWFlPic=

> <r_epik_Ionization_Penalty>
6.7666

> <r_epik_Ionization_Penalty_Charging>
6.7666

> <r_epik_Ionization_Penalty_Neutral>
5.77131e-06

> <r_epik_State_Penalty>
6.79217

> <r_epik_Charging_Adjusted_Penalty>
13.5588

> <i_epik_Tot_Q>
0

> <i_epik_Tot_abs_Q>
2

> <r_epik_Metal_State_Penalty>
2.72569

> <b_epik_Metal_Only>
1

> <s_lp_Force_Field>
OPLS_2005

> <r_lp_Energy>
21.6667

> <b_lp_Chiralities_Consistent>
1

> <s_lp_Variant>
AV-unprocessed.smi:1978-20

> <Gold.Version>
5.8.1

> <Gold.Id.Protein>
6NUR|6NUR_protein|mol2

> <Gold.PLP.Fitness>
41.5113

> <Gold.PLP.PLP>
-32.2181

> <Gold.PLP.part.hbond>
-4.1751

> <Gold.PLP.part.metal>
0.0000

> <Gold.PLP.part.buried>
-2.4431

> <Gold.PLP.part.nonpolar>
-25.0794

> <Gold.PLP.part.repulsive>
0.2319

> <Gold.PLP.ligand.clash>
0.0000

> <Gold.PLP.ligand.torsion>
1.4813

> <Gold.PLP.Chemscore.Hbond>
4.0000

> <Gold.PLP.Chemscore.CHOScore>
0.0000

> <Gold.PLP.Chemscore.Metal>
0.0000

> <Gold.Chemscore.Hbonds>
donor molecule, donor type, donor heavy atom, donor atom, acceptor molecule, acceptor atom, score
      L1  H    12    44       P1  7948  2.00
      P1  H  7989  7998       L1     8  1.00
      P1  H  7997  8009       L1     7  1.00

> <Gold.PLP.Chemscore.Internal.Correction>
0.2559

> <Gold.Rescore>
     Score         DG    S(hbond)    S(metal)    S(lipo)     H(rot)  DE(clash)    DE(int)     intcor
     13.98     -16.91       2.09        0.00      71.36       1.52       0.16       2.77       ----

> <Gold.Chemscore.Fitness>
13.9786

> <Gold.Chemscore.DG>
-16.9099

> <Gold.Chemscore.ZeroCoef>
-5.4800

> <Gold.Chemscore.Hbond>
2.0867

> <Gold.Chemscore.Metal>
0.0000

> <Gold.Chemscore.Lipo>
71.3576

> <Gold.Chemscore.Internal_Hbond>
0.0000

> <Gold.Chemscore.DEClash>
0.1617

> <Gold.Chemscore.DEInternal>
2.7696

> <Gold.Chemscore.Rot>
1.5190

> <Gold.Chemscore.Internal.Correction>
   9.000000E+99

> <Gold.Chemscore.Hbonds>
donor molecule, donor type, donor heavy atom, donor atom, acceptor molecule, acceptor atom, score
      L1  H    12    44       P1  7948  0.97
      P1  H  7989  7998       L1     8  0.77
      P1  H  7997  8009       L1     7  0.55

> <Gold.Chemscore.Hbond.Weighted>
-6.9697

> <Gold.Chemscore.Metal.Weighted>
-0.0000

> <Gold.Chemscore.Lipo.Weighted>
-8.3488

> <Gold.Chemscore.Internal_Hbond.Weighted>
0.0000

> <Gold.Chemscore.DEClash.Weighted>
0.1617

> <Gold.Chemscore.DEInternal.Weighted>
2.7696

> <Gold.Chemscore.Rot.Weighted>
3.8886

> <Gold.Chemscore.Internal.Correction.Weighted>
   9.000000E+99

> <Gold.Protein.RotatedTorsions>
[ 6907 6896 6895 6894 ] final  -73.03 input  -60.11 | X-H torsion
[ 7974 7965 7964 7962 ] final -102.58 input  175.53 | X-H torsion
[ 8008 7997 7996 7995 ] final -165.58 input   59.86 | X-H torsion
[ 10167 10162 10161 10158 ] final -108.59 input  -65.29 | X-H torsion
[ 10718 10713 10712 10709 ] final  -47.20 input   66.30 | X-H torsion
[ 10763 10752 10751 10750 ] final  -75.95 input  -60.55 | X-H torsion
[ 11005 11000 10999 10996 ] final  -66.89 input  -57.11 | X-H torsion

> <Gold.Protein.ActiveResidues>
 VAL166  LYS551  ARG553  GLY616  TRP617  ASP618  TYR619  PRO620  LYS621  CYS622 
 ASP623  PHE694  ASN695  SER759  ASP760  ASP761  ALA762  ILE779  LEU786  VAL792 
 PHE793  MET794  SER795  GLU796  ALA797  LYS798  CYS799  TRP800  GLU811  SER814 

> <Gold.Protein.RotatedAtoms>
  150.7146  134.5077  159.5591 H   0  0  0  0  0  0  0  0  0  0  0  0  # atno 6907 bound_to 6896
  152.2660  134.7981  160.0431 H   0  0  0  0  0  0  0  0  0  0  0  0  # atno 6908 bound_to 6896
  151.8677  133.3434  159.3761 H   0  0  0  0  0  0  0  0  0  0  0  0  # atno 6909 bound_to 6896
  145.2669  140.9286  143.3009 H   0  0  0  0  0  0  0  0  0  0  0  0  # atno 7974 bound_to 7965
  155.8518  140.0964  157.1670 H   0  0  0  0  0  0  0  0  0  0  0  0  # atno 8008 bound_to 7997
  154.3986  140.1382  156.3915 H   0  0  0  0  0  0  0  0  0  0  0  0  # atno 8009 bound_to 7997
  155.7953  140.3454  155.5374 H   0  0  0  0  0  0  0  0  0  0  0  0  # atno 8010 bound_to 7997
  140.1645  143.4093  152.1401 H   0  0  0  0  0  0  0  0  0  0  0  0  # atno 10167 bound_to 10162
  156.2107  130.4160  149.9118 H   0  0  0  0  0  0  0  0  0  0  0  0  # atno 10718 bound_to 10713
  154.4933  135.5814  153.6476 H   0  0  0  0  0  0  0  0  0  0  0  0  # atno 10763 bound_to 10752
  152.9866  135.6118  154.3096 H   0  0  0  0  0  0  0  0  0  0  0  0  # atno 10764 bound_to 10752
  154.2998  135.2847  155.2596 H   0  0  0  0  0  0  0  0  0  0  0  0  # atno 10765 bound_to 10752
  141.1494  133.6708  156.6209 H   0  0  0  0  0  0  0  0  0  0  0  0  # atno 11005 bound_to 11000
  144.9369  139.4233  143.6468 LP  0  0  0  0  0  0  0  0  0  0  0  0  # atno 17320 bound_to 7965
  146.3258  139.8309  142.8908 LP  0  0  0  0  0  0  0  0  0  0  0  0  # atno 17321 bound_to 7965
  139.5366  144.7215  151.4873 LP  0  0  0  0  0  0  0  0  0  0  0  0  # atno 17342 bound_to 10162
  140.6622  143.8474  150.6901 LP  0  0  0  0  0  0  0  0  0  0  0  0  # atno 17343 bound_to 10162
  156.6797  130.8853  151.3574 LP  0  0  0  0  0  0  0  0  0  0  0  0  # atno 17370 bound_to 10713
  157.7037  130.9361  150.0863 LP  0  0  0  0  0  0  0  0  0  0  0  0  # atno 17371 bound_to 10713
  140.3541  134.7743  157.4488 LP  0  0  0  0  0  0  0  0  0  0  0  0  # atno 17394 bound_to 11000
  140.0837  134.5696  155.8514 LP  0  0  0  0  0  0  0  0  0  0  0  0  # atno 17395 bound_to 11000

$$$$
