AV-unprocessed.smi:1389|AV-procd|sdf|5654|dock7
  -GOLD-   22720 5273D 1   1.00000     0.00000
 Structure written by MMmdl.
 52 54  0  0  0  0  0  0  0  0  4 V2000
  152.3747  137.3554  158.3452 C   0  0  0  0  0  0  0  0  0  0  0  0
  151.1913  138.0725  159.0360 C   0  0  2  0  0  0  0  0  0  0  0  0
  149.7944  137.5329  158.5806 C   0  0  0  0  0  0  0  0  0  0  0  0
  149.4334  136.3264  159.3274 N   0  5  0  0  0  0  0  0  0  0  0  0
  148.4303  136.2541  160.2426 C   0  0  0  0  0  0  0  0  0  0  0  0
  147.9046  137.1857  160.8632 O   0  0  0  0  0  0  0  0  0  0  0  0
  148.0089  134.9923  160.4317 N   0  0  0  0  0  0  0  0  0  0  0  0
  146.9248  134.5356  161.2310 C   0  0  0  0  0  0  0  0  0  0  0  0
  145.9607  135.4435  161.7370 C   0  0  0  0  0  0  0  0  0  0  0  0
  144.9379  134.9804  162.5858 C   0  0  0  0  0  0  0  0  0  0  0  0
  144.9062  133.6185  162.9314 C   0  0  0  0  0  0  0  0  0  0  0  0
  145.8477  132.7828  162.4460 N   0  3  0  0  0  0  0  0  0  0  0  0
  146.8479  133.1652  161.6126 C   0  0  0  0  0  0  0  0  0  0  0  0
  147.7581  132.1759  161.1750 N   0  0  0  0  0  0  0  0  0  0  0  0
  148.7607  131.6377  162.0863 C   0  0  0  0  0  0  0  0  0  0  0  0
  149.2977  130.3895  161.3909 C   0  0  0  0  0  0  0  0  0  0  0  0
  148.0594  129.8518  160.6797 C   0  0  0  0  0  0  0  0  0  0  0  0
  147.2874  131.1161  160.2879 C   0  0  0  0  0  0  0  0  0  0  0  0
  151.3774  139.5615  158.9534 N   0  3  0  0  0  0  0  0  0  0  0  0
  152.6743  140.1281  159.4191 C   0  0  0  0  0  0  0  0  0  0  0  0
  152.5736  141.6596  159.5077 C   0  0  0  0  0  0  0  0  0  0  0  0
  152.1935  142.1896  158.2429 O   0  0  0  0  0  0  0  0  0  0  0  0
  150.9167  141.7197  157.8262 C   0  0  0  0  0  0  0  0  0  0  0  0
  150.9504  140.1902  157.6749 C   0  0  0  0  0  0  0  0  0  0  0  0
  152.3859  136.2846  158.5572 H   0  0  0  0  0  0  0  0  0  0  0  0
  153.3252  137.7523  158.7029 H   0  0  0  0  0  0  0  0  0  0  0  0
  152.3636  137.4722  157.2604 H   0  0  0  0  0  0  0  0  0  0  0  0
  151.2943  137.8415  160.0975 H   0  0  0  0  0  0  0  0  0  0  0  0
  149.0469  138.3163  158.7087 H   0  0  0  0  0  0  0  0  0  0  0  0
  149.8207  137.3430  157.5075 H   0  0  0  0  0  0  0  0  0  0  0  0
  148.4250  134.3031  159.8223 H   0  0  0  0  0  0  0  0  0  0  0  0
  146.0059  136.4960  161.5007 H   0  0  0  0  0  0  0  0  0  0  0  0
  144.1976  135.6638  162.9754 H   0  0  0  0  0  0  0  0  0  0  0  0
  144.1655  133.1752  163.5807 H   0  0  0  0  0  0  0  0  0  0  0  0
  149.5509  132.3631  162.2833 H   0  0  0  0  0  0  0  0  0  0  0  0
  148.3022  131.3598  163.0364 H   0  0  0  0  0  0  0  0  0  0  0  0
  150.0563  130.6673  160.6576 H   0  0  0  0  0  0  0  0  0  0  0  0
  149.7394  129.6725  162.0835 H   0  0  0  0  0  0  0  0  0  0  0  0
  148.2991  129.2199  159.8241 H   0  0  0  0  0  0  0  0  0  0  0  0
  147.4650  129.2606  161.3776 H   0  0  0  0  0  0  0  0  0  0  0  0
  146.2099  130.9623  160.3633 H   0  0  0  0  0  0  0  0  0  0  0  0
  147.5194  131.3907  159.2582 H   0  0  0  0  0  0  0  0  0  0  0  0
  152.9409  139.7267  160.3962 H   0  0  0  0  0  0  0  0  0  0  0  0
  153.4781  139.8627  158.7311 H   0  0  0  0  0  0  0  0  0  0  0  0
  151.8552  141.9596  160.2723 H   0  0  0  0  0  0  0  0  0  0  0  0
  153.5369  142.0831  159.7926 H   0  0  0  0  0  0  0  0  0  0  0  0
  150.1527  142.0236  158.5435 H   0  0  0  0  0  0  0  0  0  0  0  0
  150.6618  142.1851  156.8740 H   0  0  0  0  0  0  0  0  0  0  0  0
  151.6345  139.9189  156.8701 H   0  0  0  0  0  0  0  0  0  0  0  0
  149.9612  139.8299  157.3906 H   0  0  0  0  0  0  0  0  0  0  0  0
  150.7048  139.9078  159.6223 H   0  0  0  0  0  0  0  0  0  0  0  0
  145.7996  131.8006  162.7166 H   0  0  0  0  0  0  0  0  0  0  0  0
  1  2  1  0  0  0  0
  1 25  1  0  0  0  0
  1 26  1  0  0  0  0
  1 27  1  0  0  0  0
  2  3  1  0  0  0  0
  2 19  1  0  0  0  0
  2 28  1  0  0  0  0
  3  4  1  0  0  0  0
  3 29  1  0  0  0  0
  3 30  1  0  0  0  0
  4  5  1  0  0  0  0
  5  6  2  0  0  0  0
  5  7  1  0  0  0  0
  7  8  1  0  0  0  0
  7 31  1  0  0  0  0
  8 13  1  0  0  0  0
  8  9  2  0  0  0  0
  9 10  1  0  0  0  0
  9 32  1  0  0  0  0
 10 11  2  0  0  0  0
 10 33  1  0  0  0  0
 11 12  1  0  0  0  0
 11 34  1  0  0  0  0
 12 13  2  0  0  0  0
 12 52  1  0  0  0  0
 13 14  1  0  0  0  0
 14 18  1  0  0  0  0
 14 15  1  0  0  0  0
 15 16  1  0  0  0  0
 15 35  1  0  0  0  0
 15 36  1  0  0  0  0
 16 17  1  0  0  0  0
 16 37  1  0  0  0  0
 16 38  1  0  0  0  0
 17 18  1  0  0  0  0
 17 39  1  0  0  0  0
 17 40  1  0  0  0  0
 18 41  1  0  0  0  0
 18 42  1  0  0  0  0
 19 24  1  0  0  0  0
 19 20  1  0  0  0  0
 19 51  1  0  0  0  0
 20 21  1  0  0  0  0
 20 43  1  0  0  0  0
 20 44  1  0  0  0  0
 21 22  1  0  0  0  0
 21 45  1  0  0  0  0
 21 46  1  0  0  0  0
 22 23  1  0  0  0  0
 23 24  1  0  0  0  0
 23 47  1  0  0  0  0
 23 48  1  0  0  0  0
 24 49  1  0  0  0  0
 24 50  1  0  0  0  0
M  CHG  1   4  -1
M  CHG  1  12   1
M  CHG  1  19   1
M  END
> <s_m_source_file>
AV-unprocessed.smi

> <i_m_source_file_index>
1389

> <i_lp_mmshare_version>
43012

> <i_f3d_flags>
0

> <s_epik_input>
W0NIMl0xW0NIMl1PW0NIMl1bQ0gyXU4xW0NASF0oW0NIM10pW0NIMl1bTkhdQyg9TylbTkhdYzJbY0hdW2NIXVtjSF1uYzJOM1tDSDJdW0NIMl1bQ0gyXVtDSDJdMw==

> <s_epik_cmdline>
J2VwaWtfcHl0aG9uJywgJy1waCcsICc3LjAnLCAnLXRuJywgJzgnLCAnLW1hJywgJzIwMCcsICctbWV0YWxfYmluZGluZycsICctaW1hZScsICc8aW5maWxlLm1hZT4nLCAnLW9tYWUnLCAnPG91dGZpbGUubWFlPic=

> <r_lp_tautomer_probability>
0.999994

> <r_epik_Ionization_Penalty>
8.58362

> <r_epik_Ionization_Penalty_Charging>
8.58361

> <r_epik_Ionization_Penalty_Neutral>
3.55275e-06

> <r_epik_State_Penalty>
8.57766

> <r_epik_Charging_Adjusted_Penalty>
17.1613

> <i_epik_Tot_Q>
1

> <i_epik_Tot_abs_Q>
3

> <r_epik_Metal_State_Penalty>
4.57399

> <b_epik_Metal_Only>
1

> <s_lp_Force_Field>
OPLS_2005

> <r_lp_Energy>
52.6414

> <b_lp_Chiralities_Consistent>
1

> <s_lp_Variant>
AV-unprocessed.smi:1389-9

> <Gold.Version>
5.8.1

> <Gold.Id.Protein>
6NUR|6NUR_protein|mol2

> <Gold.PLP.Fitness>
44.4256

> <Gold.PLP.PLP>
-34.3639

> <Gold.PLP.part.hbond>
-3.0000

> <Gold.PLP.part.metal>
0.0000

> <Gold.PLP.part.buried>
-5.5610

> <Gold.PLP.part.nonpolar>
-26.5574

> <Gold.PLP.part.repulsive>
0.3240

> <Gold.PLP.ligand.clash>
0.0000

> <Gold.PLP.ligand.torsion>
0.8820

> <Gold.PLP.Chemscore.Hbond>
3.6800

> <Gold.PLP.Chemscore.CHOScore>
0.0000

> <Gold.PLP.Chemscore.Metal>
0.0000

> <Gold.Chemscore.Hbonds>
donor molecule, donor type, donor heavy atom, donor atom, acceptor molecule, acceptor atom, score
      P1  H  6896  6908       L1     4  1.82
      P1  H  6931  6943       L1     6  0.88
      P1  H  6934  6947       L1     6  0.80

> <Gold.PLP.Chemscore.Internal.Correction>
0.7858

> <Gold.Rescore>
     Score         DG    S(hbond)    S(metal)    S(lipo)     H(rot)  DE(clash)    DE(int)     intcor
     16.83     -19.44       2.42        0.00      85.85       1.63       0.09       2.52       ----

> <Gold.Chemscore.Fitness>
16.8334

> <Gold.Chemscore.DG>
-19.4429

> <Gold.Chemscore.ZeroCoef>
-5.4800

> <Gold.Chemscore.Hbond>
2.4230

> <Gold.Chemscore.Metal>
0.0000

> <Gold.Chemscore.Lipo>
85.8523

> <Gold.Chemscore.Internal_Hbond>
0.0000

> <Gold.Chemscore.DEClash>
0.0861

> <Gold.Chemscore.DEInternal>
2.5234

> <Gold.Chemscore.Rot>
1.6307

> <Gold.Chemscore.Internal.Correction>
   9.000000E+99

> <Gold.Chemscore.Hbonds>
donor molecule, donor type, donor heavy atom, donor atom, acceptor molecule, acceptor atom, score
      P1  H  6896  6908       L1     4  0.61
      P1  H  6931  6943       L1     6  0.82
      P1  H  6934  6947       L1     6  0.78

> <Gold.Chemscore.Hbond.Weighted>
-8.0927

> <Gold.Chemscore.Metal.Weighted>
-0.0000

> <Gold.Chemscore.Lipo.Weighted>
-10.0447

> <Gold.Chemscore.Internal_Hbond.Weighted>
0.0000

> <Gold.Chemscore.DEClash.Weighted>
0.0861

> <Gold.Chemscore.DEInternal.Weighted>
2.5234

> <Gold.Chemscore.Rot.Weighted>
4.1746

> <Gold.Chemscore.Internal.Correction.Weighted>
   9.000000E+99

> <Gold.Protein.RotatedTorsions>
[ 6907 6896 6895 6894 ] final -175.30 input  -60.11 | X-H torsion
[ 7974 7965 7964 7962 ] final -175.44 input  175.53 | X-H torsion
[ 8008 7997 7996 7995 ] final  119.22 input   59.86 | X-H torsion
[ 10167 10162 10161 10158 ] final  106.64 input  -65.29 | X-H torsion
[ 10718 10713 10712 10709 ] final    7.58 input   66.30 | X-H torsion
[ 10763 10752 10751 10750 ] final   80.62 input  -60.55 | X-H torsion
[ 11005 11000 10999 10996 ] final  -66.30 input  -57.11 | X-H torsion

> <Gold.Protein.ActiveResidues>
 VAL166  LYS551  ARG553  GLY616  TRP617  ASP618  TYR619  PRO620  LYS621  CYS622 
 ASP623  PHE694  ASN695  SER759  ASP760  ASP761  ALA762  ILE779  LEU786  VAL792 
 PHE793  MET794  SER795  GLU796  ALA797  LYS798  CYS799  TRP800  GLU811  SER814 

> <Gold.Protein.RotatedAtoms>
  151.5863  133.3372  159.3018 H   0  0  0  0  0  0  0  0  0  0  0  0  # atno 6907 bound_to 6896
  150.8285  134.7531  159.6845 H   0  0  0  0  0  0  0  0  0  0  0  0  # atno 6908 bound_to 6896
  152.4372  134.5670  159.9962 H   0  0  0  0  0  0  0  0  0  0  0  0  # atno 6909 bound_to 6896
  144.7128  140.1321  143.6398 H   0  0  0  0  0  0  0  0  0  0  0  0  # atno 7974 bound_to 7965
  156.2585  140.2858  156.0957 H   0  0  0  0  0  0  0  0  0  0  0  0  # atno 8008 bound_to 7997
  155.1415  140.0395  157.2817 H   0  0  0  0  0  0  0  0  0  0  0  0  # atno 8009 bound_to 7997
  154.6526  140.2548  155.7203 H   0  0  0  0  0  0  0  0  0  0  0  0  # atno 8010 bound_to 7997
  139.6992  144.7097  151.1214 H   0  0  0  0  0  0  0  0  0  0  0  0  # atno 10167 bound_to 10162
  156.9390  130.5854  149.5652 H   0  0  0  0  0  0  0  0  0  0  0  0  # atno 10718 bound_to 10713
  153.1049  135.4795  154.8933 H   0  0  0  0  0  0  0  0  0  0  0  0  # atno 10763 bound_to 10752
  154.7419  135.3084  154.8715 H   0  0  0  0  0  0  0  0  0  0  0  0  # atno 10764 bound_to 10752
  153.9321  135.6843  153.4799 H   0  0  0  0  0  0  0  0  0  0  0  0  # atno 10765 bound_to 10752
  141.1478  133.6697  156.6118 H   0  0  0  0  0  0  0  0  0  0  0  0  # atno 11005 bound_to 11000
  145.9277  139.2586  143.1343 LP  0  0  0  0  0  0  0  0  0  0  0  0  # atno 17320 bound_to 7965
  145.9555  140.8876  143.0237 LP  0  0  0  0  0  0  0  0  0  0  0  0  # atno 17321 bound_to 7965
  140.7705  143.5447  150.9272 LP  0  0  0  0  0  0  0  0  0  0  0  0  # atno 17342 bound_to 10162
  139.9128  143.6699  152.3112 LP  0  0  0  0  0  0  0  0  0  0  0  0  # atno 17343 bound_to 10162
  156.0413  130.5495  150.8777 LP  0  0  0  0  0  0  0  0  0  0  0  0  # atno 17370 bound_to 10713
  157.5797  131.0946  150.9290 LP  0  0  0  0  0  0  0  0  0  0  0  0  # atno 17371 bound_to 10713
  140.3608  134.7689  157.4533 LP  0  0  0  0  0  0  0  0  0  0  0  0  # atno 17394 bound_to 11000
  140.0786  134.5762  155.8564 LP  0  0  0  0  0  0  0  0  0  0  0  0  # atno 17395 bound_to 11000

$$$$
