AV-unprocessed.smi:1722|AV-procd|sdf|6944|dock7
  -GOLD-   22720 8153D 1   1.00000     0.00000
 Structure written by MMmdl.
 38 39  0  0  0  0  0  0  0  0  2 V2000
  151.8077  137.1364  159.7659 O   0  0  0  0  0  0  0  0  0  0  0  0
  151.0577  137.6233  158.9206 C   0  0  0  0  0  0  0  0  0  0  0  0
  151.5642  138.7713  158.0493 C   0  0  0  0  0  0  0  0  0  0  0  0
  152.7682  139.2765  158.6118 O   0  0  0  0  0  0  0  0  0  0  0  0
  152.5895  140.3413  159.5352 C   0  0  0  0  0  0  0  0  0  0  0  0
  151.9710  141.5177  158.7592 C   0  0  0  0  0  0  0  0  0  0  0  0
  151.8132  142.7606  159.6497 C   0  0  0  0  0  0  0  0  0  0  0  0
  153.1558  143.1678  160.2769 C   0  0  0  0  0  0  0  0  0  0  0  0
  153.7811  141.9988  161.0545 C   0  0  0  0  0  0  0  0  0  0  0  0
  153.9367  140.7552  160.1640 C   0  0  0  0  0  0  0  0  0  0  0  0
  149.7818  137.2494  158.7008 N   0  0  0  0  0  0  0  0  0  0  0  0
  149.0403  136.2116  159.2903 C   0  0  0  0  0  0  0  0  0  0  0  0
  148.8009  136.0912  160.6254 C   0  0  0  0  0  0  0  0  0  0  0  0
  148.0418  134.9798  161.1850 C   0  0  0  0  0  0  0  0  0  0  0  0
  147.8244  134.7719  162.6734 C   0  0  0  0  0  0  0  0  0  0  0  0
  148.3785  135.7719  163.3573 F   0  0  0  0  0  0  0  0  0  0  0  0
  146.5246  134.7371  162.9680 F   0  0  0  0  0  0  0  0  0  0  0  0
  148.3788  133.6309  163.0832 F   0  0  0  0  0  0  0  0  0  0  0  0
  147.6400  134.0800  160.2169 C   0  0  0  0  0  0  0  0  0  0  0  0
  147.8272  134.1287  158.8796 N   0  5  0  0  0  0  0  0  0  0  0  0
  148.5315  135.1768  158.3665 C   0  0  0  0  0  0  0  0  0  0  0  0
  148.7484  135.2774  157.1584 O   0  0  0  0  0  0  0  0  0  0  0  0
  151.7403  138.3995  157.0389 H   0  0  0  0  0  0  0  0  0  0  0  0
  150.8013  139.5481  157.9918 H   0  0  0  0  0  0  0  0  0  0  0  0
  151.8906  140.0416  160.3186 H   0  0  0  0  0  0  0  0  0  0  0  0
  152.6000  141.7632  157.9023 H   0  0  0  0  0  0  0  0  0  0  0  0
  151.0006  141.2266  158.3555 H   0  0  0  0  0  0  0  0  0  0  0  0
  151.4101  143.5882  159.0650 H   0  0  0  0  0  0  0  0  0  0  0  0
  151.0877  142.5562  160.4380 H   0  0  0  0  0  0  0  0  0  0  0  0
  153.8414  143.4936  159.4936 H   0  0  0  0  0  0  0  0  0  0  0  0
  153.0141  144.0225  160.9389 H   0  0  0  0  0  0  0  0  0  0  0  0
  154.7518  142.2945  161.4528 H   0  0  0  0  0  0  0  0  0  0  0  0
  153.1553  141.7557  161.9141 H   0  0  0  0  0  0  0  0  0  0  0  0
  154.3523  139.9405  160.7561 H   0  0  0  0  0  0  0  0  0  0  0  0
  154.6599  140.9627  159.3742 H   0  0  0  0  0  0  0  0  0  0  0  0
  149.2655  137.8003  158.0301 H   0  0  0  0  0  0  0  0  0  0  0  0
  149.1885  136.8150  161.3233 H   0  0  0  0  0  0  0  0  0  0  0  0
  147.0894  133.1824  160.5711 H   0  0  0  0  0  0  0  0  0  0  0  0
  1  2  2  0  0  0  0
  2  3  1  0  0  0  0
  2 11  1  0  0  0  0
  3  4  1  0  0  0  0
  3 23  1  0  0  0  0
  3 24  1  0  0  0  0
  4  5  1  0  0  0  0
  5 10  1  0  0  0  0
  5  6  1  0  0  0  0
  5 25  1  0  0  0  0
  6  7  1  0  0  0  0
  6 26  1  0  0  0  0
  6 27  1  0  0  0  0
  7  8  1  0  0  0  0
  7 28  1  0  0  0  0
  7 29  1  0  0  0  0
  8  9  1  0  0  0  0
  8 30  1  0  0  0  0
  8 31  1  0  0  0  0
  9 10  1  0  0  0  0
  9 32  1  0  0  0  0
  9 33  1  0  0  0  0
 10 34  1  0  0  0  0
 10 35  1  0  0  0  0
 11 12  1  0  0  0  0
 11 36  1  0  0  0  0
 12 21  1  0  0  0  0
 12 13  2  0  0  0  0
 13 14  1  0  0  0  0
 13 37  1  0  0  0  0
 14 15  1  0  0  0  0
 14 19  2  0  0  0  0
 15 16  1  0  0  0  0
 15 17  1  0  0  0  0
 15 18  1  0  0  0  0
 19 20  1  0  0  0  0
 19 38  1  0  0  0  0
 20 21  1  0  0  0  0
 21 22  2  0  0  0  0
M  CHG  1  20  -1
M  END
> <s_m_source_file>
AV-unprocessed.smi

> <i_m_source_file_index>
1722

> <i_lp_mmshare_version>
43012

> <i_f3d_flags>
0

> <s_epik_input>
Tz1jMVtuSF1bY0hdYyhDKEYpKEYpRilbY0hdYzFbTkhdQyg9TylbQ0gyXU9bQ0hdMltDSDJdW0NIMl1bQ0gyXVtDSDJdW0NIMl0y

> <s_epik_cmdline>
J2VwaWtfcHl0aG9uJywgJy1waCcsICc3LjAnLCAnLXRuJywgJzgnLCAnLW1hJywgJzIwMCcsICctbWV0YWxfYmluZGluZycsICctaW1hZScsICc8aW5maWxlLm1hZT4nLCAnLW9tYWUnLCAnPG91dGZpbGUubWFlPic=

> <r_epik_Ionization_Penalty>
2.55378

> <r_epik_Ionization_Penalty_Charging>
0.0617094

> <r_epik_Ionization_Penalty_Neutral>
2.49207

> <r_epik_State_Penalty>
2.65647

> <r_epik_Charging_Adjusted_Penalty>
2.71818

> <i_epik_Tot_Q>
-1

> <i_epik_Tot_abs_Q>
1

> <r_epik_Metal_State_Penalty>
0.516461

> <b_epik_Metal_Only>
0

> <s_lp_Force_Field>
OPLS_2005

> <r_lp_Energy>
27.5399

> <b_lp_Chiralities_Consistent>
1

> <s_lp_Variant>
AV-unprocessed.smi:1722-2

> <Gold.Version>
5.8.1

> <Gold.Id.Protein>
6NUR|6NUR_protein|mol2

> <Gold.PLP.Fitness>
44.4952

> <Gold.PLP.PLP>
-43.3508

> <Gold.PLP.part.hbond>
-0.9779

> <Gold.PLP.part.metal>
0.0000

> <Gold.PLP.part.buried>
-6.1333

> <Gold.PLP.part.nonpolar>
-36.6937

> <Gold.PLP.part.repulsive>
0.1422

> <Gold.PLP.ligand.clash>
0.0000

> <Gold.PLP.ligand.torsion>
0.9549

> <Gold.PLP.Chemscore.Hbond>
0.9913

> <Gold.PLP.Chemscore.CHOScore>
0.0000

> <Gold.PLP.Chemscore.Metal>
0.0000

> <Gold.Chemscore.Hbonds>
donor molecule, donor type, donor heavy atom, donor atom, acceptor molecule, acceptor atom, score
      P1  H  6896  6907       L1     1  1.00

> <Gold.PLP.Chemscore.Internal.Correction>
0.0804

> <Gold.Rescore>
     Score         DG    S(hbond)    S(metal)    S(lipo)     H(rot)  DE(clash)    DE(int)     intcor
     14.20     -15.25       0.98        0.00      89.83       1.57       0.02       1.03       ----

> <Gold.Chemscore.Fitness>
14.1994

> <Gold.Chemscore.DG>
-15.2470

> <Gold.Chemscore.ZeroCoef>
-5.4800

> <Gold.Chemscore.Hbond>
0.9823

> <Gold.Chemscore.Metal>
0.0000

> <Gold.Chemscore.Lipo>
89.8282

> <Gold.Chemscore.Internal_Hbond>
0.0000

> <Gold.Chemscore.DEClash>
0.0164

> <Gold.Chemscore.DEInternal>
1.0312

> <Gold.Chemscore.Rot>
1.5717

> <Gold.Chemscore.Internal.Correction>
   9.000000E+99

> <Gold.Chemscore.Hbonds>
donor molecule, donor type, donor heavy atom, donor atom, acceptor molecule, acceptor atom, score
      P1  H  6896  6907       L1     1  0.79

> <Gold.Chemscore.Hbond.Weighted>
-3.2808

> <Gold.Chemscore.Metal.Weighted>
-0.0000

> <Gold.Chemscore.Lipo.Weighted>
-10.5099

> <Gold.Chemscore.Internal_Hbond.Weighted>
0.0000

> <Gold.Chemscore.DEClash.Weighted>
0.0164

> <Gold.Chemscore.DEInternal.Weighted>
1.0312

> <Gold.Chemscore.Rot.Weighted>
4.0237

> <Gold.Chemscore.Internal.Correction.Weighted>
   9.000000E+99

> <Gold.Protein.RotatedTorsions>
[ 6907 6896 6895 6894 ] final   -4.65 input  -60.11 | X-H torsion
[ 7974 7965 7964 7962 ] final  100.81 input  175.53 | X-H torsion
[ 8008 7997 7996 7995 ] final   42.54 input   59.86 | X-H torsion
[ 10167 10162 10161 10158 ] final   58.24 input  -65.29 | X-H torsion
[ 10718 10713 10712 10709 ] final -115.54 input   66.30 | X-H torsion
[ 10763 10752 10751 10750 ] final  124.25 input  -60.55 | X-H torsion
[ 11005 11000 10999 10996 ] final  -25.35 input  -57.11 | X-H torsion

> <Gold.Protein.ActiveResidues>
 VAL166  LYS551  ARG553  GLY616  TRP617  ASP618  TYR619  PRO620  LYS621  CYS622 
 ASP623  PHE694  ASN695  SER759  ASP760  ASP761  ALA762  ILE779  LEU786  VAL792 
 PHE793  MET794  SER795  GLU796  ALA797  LYS798  CYS799  TRP800  GLU811  SER814 

> <Gold.Protein.RotatedAtoms>
  151.4942  135.1059  159.9811 H   0  0  0  0  0  0  0  0  0  0  0  0  # atno 6907 bound_to 6896
  152.4728  133.8066  159.6991 H   0  0  0  0  0  0  0  0  0  0  0  0  # atno 6908 bound_to 6896
  150.8748  133.7392  159.2976 H   0  0  0  0  0  0  0  0  0  0  0  0  # atno 6909 bound_to 6896
  145.3806  139.2380  143.3405 H   0  0  0  0  0  0  0  0  0  0  0  0  # atno 7974 bound_to 7965
  155.2879  140.3377  155.4254 H   0  0  0  0  0  0  0  0  0  0  0  0  # atno 8008 bound_to 7997
  156.2060  140.1751  156.7840 H   0  0  0  0  0  0  0  0  0  0  0  0  # atno 8009 bound_to 7997
  154.5621  140.0685  156.8819 H   0  0  0  0  0  0  0  0  0  0  0  0  # atno 8010 bound_to 7997
  140.1894  144.4101  150.6578 H   0  0  0  0  0  0  0  0  0  0  0  0  # atno 10167 bound_to 10162
  156.0903  130.6087  150.8920 H   0  0  0  0  0  0  0  0  0  0  0  0  # atno 10718 bound_to 10713
  153.6584  135.3350  155.3120 H   0  0  0  0  0  0  0  0  0  0  0  0  # atno 10763 bound_to 10752
  154.8521  135.4358  154.1830 H   0  0  0  0  0  0  0  0  0  0  0  0  # atno 10764 bound_to 10752
  153.2791  135.7007  153.7479 H   0  0  0  0  0  0  0  0  0  0  0  0  # atno 10765 bound_to 10752
  140.8929  133.7576  156.0444 H   0  0  0  0  0  0  0  0  0  0  0  0  # atno 11005 bound_to 11000
  146.2844  140.4473  142.8764 LP  0  0  0  0  0  0  0  0  0  0  0  0  # atno 17320 bound_to 7965
  144.8510  140.7001  143.6168 LP  0  0  0  0  0  0  0  0  0  0  0  0  # atno 17321 bound_to 7965
  140.6466  143.2215  151.6171 LP  0  0  0  0  0  0  0  0  0  0  0  0  # atno 17342 bound_to 10162
  139.5262  144.3051  152.1040 LP  0  0  0  0  0  0  0  0  0  0  0  0  # atno 17343 bound_to 10162
  157.6050  131.0939  150.8895 LP  0  0  0  0  0  0  0  0  0  0  0  0  # atno 17370 bound_to 10713
  156.9045  130.5258  149.5282 LP  0  0  0  0  0  0  0  0  0  0  0  0  # atno 17371 bound_to 10713
  140.8325  134.3162  157.5344 LP  0  0  0  0  0  0  0  0  0  0  0  0  # atno 17394 bound_to 11000
  139.8732  134.9371  156.3678 LP  0  0  0  0  0  0  0  0  0  0  0  0  # atno 17395 bound_to 11000

$$$$
