#       Name:                AV-unprocessed.smi:1586
#       Creating user name   scv26
#       Creation time:       Fri Mar 27 07:01:39 2020


#       File generated by GOLD software.
#

@<TRIPOS>MOLECULE
AV-unprocessed.smi:1586
    53    54     1
SMALL
NO_CHARGES


@<TRIPOS>ATOM
      1 ****        -4.2456  -4.2764   2.1037 C.3            1 S1                 0.0000
      2 ****        -4.0374  -2.7566   2.0289 C.3            1 S1                 0.0000
      3 ****        -2.8986  -2.3202   2.8403 N.3            1 S1                 0.0000
      4 ****        -1.5847  -2.7282   2.3306 C.3            1 S1                 0.0000
      5 ****        -1.1944  -1.9769   1.0400 C.3            1 S1                 0.0000
      6 ****        -1.2095  -0.5103   1.2689 N.4            1 S1                 1.0000
      7 ****        -0.6502   0.2781   0.1272 C.3            1 S1                 0.0000
      8 ****        -1.7073   0.6001  -0.9592 C.3            1 S1                 0.0000
      9 ****         0.1240   1.5201   0.6496 C.3            1 S1                 0.0000
     10 ****         0.9509   2.1103  -0.4044 N.pl3          1 S1                -1.0000
     11 ****         2.1899   1.6699  -0.7592 C.2            1 S1                 0.0000
     12 ****         2.8049   0.7035  -0.2923 O.2            1 S1                 0.0000
     13 ****         2.7362   2.4165  -1.7361 N.am           1 S1                 0.0000
     14 ****         4.0034   2.2744  -2.3608 C.2            1 S1                 0.0000
     15 ****         4.4191   3.1834  -3.3699 C.2            1 S1                 0.0000
     16 ****         5.6603   2.7233  -3.7085 C.2            1 S1                 0.0000
     17 ****         6.6796   3.1896  -4.6907 C.3            1 S1                 0.0000
     18 ****         5.9758   1.6246  -2.9706 O.3            1 S1                 0.0000
     19 ****         4.9093   1.3411  -2.1093 N.2            1 S1                 0.0000
     20 ****        -2.5443  -0.0901   1.7812 C.3            1 S1                 0.0000
     21 ****        -2.8923  -0.8722   3.0645 C.3            1 S1                 0.0000
     22 ****        -5.1713  -4.5584   1.6016 H              1 S1                 0.0000
     23 ****        -4.3158  -4.6163   3.1375 H              1 S1                 0.0000
     24 ****        -3.4382  -4.8255   1.6199 H              1 S1                 0.0000
     25 ****        -3.9386  -2.4401   0.9913 H              1 S1                 0.0000
     26 ****        -4.9381  -2.2763   2.4136 H              1 S1                 0.0000
     27 ****        -0.8412  -2.5245   3.1024 H              1 S1                 0.0000
     28 ****        -1.5540  -3.8046   2.1664 H              1 S1                 0.0000
     29 ****        -0.1913  -2.2906   0.7488 H              1 S1                 0.0000
     30 ****        -1.8538  -2.2389   0.2124 H              1 S1                 0.0000
     31 ****         0.0965  -0.3610  -0.3468 H              1 S1                 0.0000
     32 ****        -1.2515   1.0311  -1.8524 H              1 S1                 0.0000
     33 ****        -2.4681   1.3023  -0.6137 H              1 S1                 0.0000
     34 ****        -2.2211  -0.3054  -1.2824 H              1 S1                 0.0000
     35 ****        -0.5908   2.2433   1.0427 H              1 S1                 0.0000
     36 ****         0.7265   1.2233   1.5097 H              1 S1                 0.0000
     37 ****         2.1733   3.1872  -2.0639 H              1 S1                 0.0000
     38 ****         3.8951   4.0347  -3.7780 H              1 S1                 0.0000
     39 ****         6.2012   3.6108  -5.5750 H              1 S1                 0.0000
     40 ****         7.3182   2.3667  -5.0129 H              1 S1                 0.0000
     41 ****         7.3142   3.9588  -4.2507 H              1 S1                 0.0000
     42 ****        -2.5413   0.9755   2.0102 H              1 S1                 0.0000
     43 ****        -3.3146  -0.2426   1.0250 H              1 S1                 0.0000
     44 ****        -3.8614  -0.5549   3.4513 H              1 S1                 0.0000
     45 ****        -2.1625  -0.6414   3.8418 H              1 S1                 0.0000
     46 ****        -0.5591  -0.3566   2.0263 H              1 S1                 0.0000
     47 ****        -3.0404  -2.7978   3.7074 LP             1 S1                 0.0000
     48 ****         0.5785   2.8947  -0.9005 LP             1 S1                 0.0000
     49 ****         2.3910   0.1489   0.4296 LP             1 S1                 0.0000
     50 ****         3.7159   0.4768  -0.6367 LP             1 S1                 0.0000
     51 ****         6.8016   1.8041  -2.4359 LP             1 S1                 0.0000
     52 ****         6.1344   0.8458  -3.5775 LP             1 S1                 0.0000
     53 ****         4.8451   0.5948  -1.4468 LP             1 S1                 0.0000
@<TRIPOS>BOND
    1    1    2 1     
    2    1   22 1     
    3    1   23 1     
    4    1   24 1     
    5    2    3 1     
    6    2   25 1     
    7    2   26 1     
    8    3   21 1     
    9    3    4 1     
   10    4    5 1     
   11    4   27 1     
   12    4   28 1     
   13    5    6 1     
   14    5   29 1     
   15    5   30 1     
   16    6    7 1     
   17    6   20 1     
   18    6   46 1     
   19    7    8 1     
   20    7    9 1     
   21    7   31 1     
   22    8   32 1     
   23    8   33 1     
   24    8   34 1     
   25    9   10 1     
   26    9   35 1     
   27    9   36 1     
   28   10   11 1     
   29   11   12 2     
   30   11   13 am    
   31   13   14 1     
   32   13   37 1     
   33   14   19 2     
   34   14   15 1     
   35   15   16 2     
   36   15   38 1     
   37   16   17 1     
   38   16   18 1     
   39   17   39 1     
   40   17   40 1     
   41   17   41 1     
   42   18   19 1     
   43   20   21 1     
   44   20   42 1     
   45   20   43 1     
   46   21   44 1     
   47   21   45 1     
   48    3   47 1     
   49   10   48 1     
   50   12   49 1     
   51   12   50 1     
   52   18   51 1     
   53   18   52 1     
   54   19   53 1     
@<TRIPOS>SUBSTRUCTURE
      1 S1             1
@<TRIPOS>SET
LONE_PAIRS      STATIC     ATOMS    <user>   **** ""
7 47 48 49 50 51 52 53
DONOR_HYDROGENS      STATIC     ATOMS    <user>   **** ""
2 46 37
ATOM$BLUE        STATIC     ATOMS    COLORGROUP SYSTEM
7 47 48 49 50 51 52 53
ATOM$RED        STATIC     ATOMS    COLORGROUP SYSTEM
2 46 37
