AV-unprocessed.smi:1767|AV-procd|sdf|7139|dock9
  -GOLD-   22720 8383D 1   1.00000     0.00000
 Structure written by MMmdl.
 32 34  0  0  0  0  0  0  0  0  1 V2000
  153.0206  139.6231  157.7000 O   0  0  0  0  0  0  0  0  0  0  0  0
  151.8785  140.3941  157.3884 C   0  0  2  0  0  0  0  0  0  0  0  0
  151.7898  140.5286  155.8554 C   0  0  0  0  0  0  0  0  0  0  0  0
  150.7282  139.7122  155.2944 N   0  0  0  0  0  0  0  0  0  0  0  0
  150.6859  138.3673  155.2378 C   0  0  0  0  0  0  0  0  0  0  0  0
  149.6067  137.8135  154.6929 N   0  0  0  0  0  0  0  0  0  0  0  0
  148.8608  138.9296  154.3546 C   0  0  0  0  0  0  0  0  0  0  0  0
  147.5927  139.0326  153.7391 C   0  0  0  0  0  0  0  0  0  0  0  0
  147.0190  140.2973  153.4924 C   0  0  0  0  0  0  0  0  0  0  0  0
  147.7026  141.4759  153.8554 C   0  0  0  0  0  0  0  0  0  0  0  0
  148.9677  141.3983  154.4685 C   0  0  0  0  0  0  0  0  0  0  0  0
  149.5364  140.1346  154.7144 C   0  0  0  0  0  0  0  0  0  0  0  0
  151.8881  141.7466  158.0883 C   0  0  0  0  0  0  0  0  0  0  0  0
  152.5486  141.8938  159.3273 C   0  0  0  0  0  0  0  0  0  0  0  0
  152.5361  143.1332  159.9961 C   0  0  0  0  0  0  0  0  0  0  0  0
  151.8642  144.2331  159.4294 C   0  0  0  0  0  0  0  0  0  0  0  0
  151.8507  145.4241  160.0734 F   0  0  0  0  0  0  0  0  0  0  0  0
  151.2051  144.0933  158.1932 C   0  0  0  0  0  0  0  0  0  0  0  0
  151.2163  142.8538  157.5245 C   0  0  0  0  0  0  0  0  0  0  0  0
  152.7479  138.8823  158.2195 H   0  0  0  0  0  0  0  0  0  0  0  0
  151.0185  139.8242  157.7433 H   0  0  0  0  0  0  0  0  0  0  0  0
  151.6313  141.5675  155.5630 H   0  0  0  0  0  0  0  0  0  0  0  0
  152.7289  140.2162  155.3960 H   0  0  0  0  0  0  0  0  0  0  0  0
  151.4916  137.7602  155.6241 H   0  0  0  0  0  0  0  0  0  0  0  0
  147.0599  138.1366  153.4572 H   0  0  0  0  0  0  0  0  0  0  0  0
  146.0488  140.3632  153.0223 H   0  0  0  0  0  0  0  0  0  0  0  0
  147.2550  142.4401  153.6632 H   0  0  0  0  0  0  0  0  0  0  0  0
  149.4916  142.2994  154.7507 H   0  0  0  0  0  0  0  0  0  0  0  0
  153.0587  141.0533  159.7747 H   0  0  0  0  0  0  0  0  0  0  0  0
  153.0396  143.2392  160.9457 H   0  0  0  0  0  0  0  0  0  0  0  0
  150.6875  144.9359  157.7593 H   0  0  0  0  0  0  0  0  0  0  0  0
  150.6990  142.7537  156.5815 H   0  0  0  0  0  0  0  0  0  0  0  0
  1  2  1  0  0  0  0
  1 20  1  0  0  0  0
  2  3  1  0  0  0  0
  2 13  1  0  0  0  0
  2 21  1  0  0  0  0
  3  4  1  0  0  0  0
  3 22  1  0  0  0  0
  3 23  1  0  0  0  0
  4 12  1  0  0  0  0
  4  5  1  0  0  0  0
  5  6  2  0  0  0  0
  5 24  1  0  0  0  0
  6  7  1  0  0  0  0
  7 12  2  0  0  0  0
  7  8  1  0  0  0  0
  8  9  2  0  0  0  0
  8 25  1  0  0  0  0
  9 10  1  0  0  0  0
  9 26  1  0  0  0  0
 10 11  2  0  0  0  0
 10 27  1  0  0  0  0
 11 12  1  0  0  0  0
 11 28  1  0  0  0  0
 13 19  1  0  0  0  0
 13 14  2  0  0  0  0
 14 15  1  0  0  0  0
 14 29  1  0  0  0  0
 15 16  2  0  0  0  0
 15 30  1  0  0  0  0
 16 17  1  0  0  0  0
 16 18  1  0  0  0  0
 18 19  2  0  0  0  0
 18 31  1  0  0  0  0
 19 32  1  0  0  0  0
M  END
> <s_m_source_file>
AV-unprocessed.smi

> <i_m_source_file_index>
1767

> <i_lp_mmshare_version>
43012

> <i_f3d_flags>
0

> <s_epik_input>
W2NIXTFbY0hdYyhGKVtjSF1bY0hdYzFbQ0BIXShbT0hdKVtDSDJdbihbY0hdbjIpYyhjMjMpW2NIXVtjSF1bY0hdW2NIXTM=

> <s_epik_cmdline>
J2VwaWtfcHl0aG9uJywgJy1waCcsICc3LjAnLCAnLXRuJywgJzgnLCAnLW1hJywgJzIwMCcsICctbWV0YWxfYmluZGluZycsICctaW1hZScsICc8aW5maWxlLm1hZT4nLCAnLW9tYWUnLCAnPG91dGZpbGUubWFlPic=

> <r_epik_Ionization_Penalty>
0.0696514

> <r_epik_Ionization_Penalty_Charging>
0

> <r_epik_Ionization_Penalty_Neutral>
0.0696514

> <r_epik_State_Penalty>
0.0610247

> <r_epik_Charging_Adjusted_Penalty>
0.0610247

> <i_epik_Tot_Q>
0

> <i_epik_Tot_abs_Q>
0

> <r_epik_Metal_State_Penalty>
6.42746e-05

> <b_epik_Metal_Only>
0

> <s_lp_Force_Field>
OPLS_2005

> <r_lp_Energy>
11.9132

> <b_lp_Chiralities_Consistent>
1

> <s_lp_Variant>
AV-unprocessed.smi:1767-1

> <Gold.Version>
5.8.1

> <Gold.Id.Protein>
6NUR|6NUR_protein|mol2

> <Gold.PLP.Fitness>
47.2430

> <Gold.PLP.PLP>
-47.2462

> <Gold.PLP.part.hbond>
-1.0000

> <Gold.PLP.part.metal>
0.0000

> <Gold.PLP.part.buried>
-4.9704

> <Gold.PLP.part.nonpolar>
-41.9545

> <Gold.PLP.part.repulsive>
0.1823

> <Gold.PLP.ligand.clash>
0.0000

> <Gold.PLP.ligand.torsion>
1.5090

> <Gold.PLP.Chemscore.Hbond>
1.0000

> <Gold.PLP.Chemscore.CHOScore>
0.0000

> <Gold.PLP.Chemscore.Metal>
0.0000

> <Gold.Chemscore.Hbonds>
donor molecule, donor type, donor heavy atom, donor atom, acceptor molecule, acceptor atom, score
      P1  H  7997  8008       L1     1  1.00

> <Gold.PLP.Chemscore.Internal.Correction>
0.0148

> <Gold.Rescore>
     Score         DG    S(hbond)    S(metal)    S(lipo)     H(rot)  DE(clash)    DE(int)     intcor
     15.83     -17.39       0.94        0.00     116.88       1.91       0.06       1.51       ----

> <Gold.Chemscore.Fitness>
15.8253

> <Gold.Chemscore.DG>
-17.3904

> <Gold.Chemscore.ZeroCoef>
-5.4800

> <Gold.Chemscore.Hbond>
0.9370

> <Gold.Chemscore.Metal>
0.0000

> <Gold.Chemscore.Lipo>
116.8771

> <Gold.Chemscore.Internal_Hbond>
0.0000

> <Gold.Chemscore.DEClash>
0.0572

> <Gold.Chemscore.DEInternal>
1.5080

> <Gold.Chemscore.Rot>
1.9116

> <Gold.Chemscore.Internal.Correction>
   9.000000E+99

> <Gold.Chemscore.Hbonds>
donor molecule, donor type, donor heavy atom, donor atom, acceptor molecule, acceptor atom, score
      P1  H  7997  8008       L1     1  0.72

> <Gold.Chemscore.Hbond.Weighted>
-3.1295

> <Gold.Chemscore.Metal.Weighted>
-0.0000

> <Gold.Chemscore.Lipo.Weighted>
-13.6746

> <Gold.Chemscore.Internal_Hbond.Weighted>
0.0000

> <Gold.Chemscore.DEClash.Weighted>
0.0572

> <Gold.Chemscore.DEInternal.Weighted>
1.5080

> <Gold.Chemscore.Rot.Weighted>
4.8937

> <Gold.Chemscore.Internal.Correction.Weighted>
   9.000000E+99

> <Gold.Protein.RotatedTorsions>
[ 6907 6896 6895 6894 ] final   54.14 input  -60.11 | X-H torsion
[ 7974 7965 7964 7962 ] final  146.46 input  175.53 | X-H torsion
[ 8008 7997 7996 7995 ] final  -57.65 input   59.86 | X-H torsion
[ 10167 10162 10161 10158 ] final  -47.37 input  -65.29 | X-H torsion
[ 10718 10713 10712 10709 ] final   75.73 input   66.30 | X-H torsion
[ 10763 10752 10751 10750 ] final   45.79 input  -60.55 | X-H torsion
[ 11005 11000 10999 10996 ] final -113.76 input  -57.11 | X-H torsion

> <Gold.Protein.ActiveResidues>
 VAL166  LYS551  ARG553  GLY616  TRP617  ASP618  TYR619  PRO620  LYS621  CYS622 
 ASP623  PHE694  ASN695  SER759  ASP760  ASP761  ALA762  ILE779  LEU786  VAL792 
 PHE793  MET794  SER795  GLU796  ALA797  LYS798  CYS799  TRP800  GLU811  SER814 

> <Gold.Protein.RotatedAtoms>
  152.3409  134.7135  160.0263 H   0  0  0  0  0  0  0  0  0  0  0  0  # atno 6907 bound_to 6896
  151.7521  133.3322  159.3402 H   0  0  0  0  0  0  0  0  0  0  0  0  # atno 6908 bound_to 6896
  150.7479  134.6115  159.6133 H   0  0  0  0  0  0  0  0  0  0  0  0  # atno 6909 bound_to 6896
  144.8669  139.5908  143.5904 H   0  0  0  0  0  0  0  0  0  0  0  0  # atno 7974 bound_to 7965
  154.4277  140.1102  156.5832 H   0  0  0  0  0  0  0  0  0  0  0  0  # atno 8008 bound_to 7997
  155.6090  140.3494  155.4598 H   0  0  0  0  0  0  0  0  0  0  0  0  # atno 8009 bound_to 7997
  156.0114  140.1220  157.0439 H   0  0  0  0  0  0  0  0  0  0  0  0  # atno 8010 bound_to 7997
  140.6778  143.2787  151.3917 H   0  0  0  0  0  0  0  0  0  0  0  0  # atno 10167 bound_to 10162
  157.6646  130.9740  150.1396 H   0  0  0  0  0  0  0  0  0  0  0  0  # atno 10718 bound_to 10713
  152.9819  135.6028  154.3493 H   0  0  0  0  0  0  0  0  0  0  0  0  # atno 10763 bound_to 10752
  154.3184  135.2770  155.2533 H   0  0  0  0  0  0  0  0  0  0  0  0  # atno 10764 bound_to 10752
  154.4711  135.5941  153.6378 H   0  0  0  0  0  0  0  0  0  0  0  0  # atno 10765 bound_to 10752
  141.0594  133.9559  157.2694 H   0  0  0  0  0  0  0  0  0  0  0  0  # atno 11005 bound_to 11000
  146.2902  139.7118  142.9166 LP  0  0  0  0  0  0  0  0  0  0  0  0  # atno 17320 bound_to 7965
  145.4204  141.0406  143.2967 LP  0  0  0  0  0  0  0  0  0  0  0  0  # atno 17321 bound_to 7965
  139.6080  144.1156  152.2270 LP  0  0  0  0  0  0  0  0  0  0  0  0  # atno 17342 bound_to 10162
  140.0561  144.5894  150.7298 LP  0  0  0  0  0  0  0  0  0  0  0  0  # atno 17343 bound_to 10162
  156.2222  130.3675  149.8542 LP  0  0  0  0  0  0  0  0  0  0  0  0  # atno 17370 bound_to 10713
  156.6392  130.8698  151.3510 LP  0  0  0  0  0  0  0  0  0  0  0  0  # atno 17371 bound_to 10713
  139.9419  135.0190  156.8734 LP  0  0  0  0  0  0  0  0  0  0  0  0  # atno 17394 bound_to 11000
  140.5899  134.0272  155.7495 LP  0  0  0  0  0  0  0  0  0  0  0  0  # atno 17395 bound_to 11000

$$$$
