AV-unprocessed.smi:652|AV-procd|sdf|3201|dock10
  -GOLD-   22720 0133D 1   1.00000     0.00000
 Structure written by MMmdl.
 49 50  0  0  0  0  0  0  0  0  3 V2000
  147.3660  136.4430  163.0202 C   0  0  0  0  0  0  0  0  0  0  0  0
  146.8900  135.8153  161.7033 C   0  0  0  0  0  0  0  0  0  0  0  0
  146.4291  134.3627  161.9033 C   0  0  0  0  0  0  0  0  0  0  0  0
  147.9656  135.8822  160.7176 N   0  0  0  0  0  0  0  0  0  0  0  0
  148.0282  136.7452  159.6915 C   0  0  0  0  0  0  0  0  0  0  0  0
  147.1606  137.5889  159.4645 O   0  0  0  0  0  0  0  0  0  0  0  0
  149.2571  136.6212  158.7845 C   0  0  0  0  0  0  0  0  0  0  0  0
  150.1639  137.8699  158.8096 C   0  0  0  0  0  0  0  0  0  0  0  0
  150.1055  138.6450  157.5447 N   0  3  2  0  0  0  0  0  0  0  0  0
  150.6952  137.9023  156.4059 C   0  0  0  0  0  0  0  0  0  0  0  0
  150.5768  138.7193  155.1097 C   0  0  0  0  0  0  0  0  0  0  0  0
  151.2038  139.9834  155.2875 O   0  0  0  0  0  0  0  0  0  0  0  0
  150.5862  140.7570  156.3098 C   0  0  2  0  0  0  0  0  0  0  0  0
  151.2855  142.1259  156.3350 C   0  0  0  0  0  0  0  0  0  0  0  0
  150.5115  143.1260  157.0563 N   0  0  0  0  0  0  0  0  0  0  0  0
  150.9706  143.6458  158.2738 C   0  0  0  0  0  0  0  0  0  0  0  0
  152.1832  143.2639  158.8935 C   0  0  0  0  0  0  0  0  0  0  0  0
  152.5248  143.8658  160.1165 C   0  0  0  0  0  0  0  0  0  0  0  0
  151.6335  144.8149  160.6471 C   0  0  0  0  0  0  0  0  0  0  0  0
  150.4784  145.1663  160.0391 N   0  0  0  0  0  0  0  0  0  0  0  0
  150.1795  144.5727  158.8702 N   0  3  0  0  0  0  0  0  0  0  0  0
  150.7101  139.9971  157.6482 C   0  0  0  0  0  0  0  0  0  0  0  0
  146.5711  136.4363  163.7665 H   0  0  0  0  0  0  0  0  0  0  0  0
  147.6709  137.4798  162.8750 H   0  0  0  0  0  0  0  0  0  0  0  0
  148.2156  135.9001  163.4356 H   0  0  0  0  0  0  0  0  0  0  0  0
  146.0433  136.4025  161.3431 H   0  0  0  0  0  0  0  0  0  0  0  0
  145.6270  134.3054  162.6397 H   0  0  0  0  0  0  0  0  0  0  0  0
  147.2461  133.7306  162.2526 H   0  0  0  0  0  0  0  0  0  0  0  0
  146.0499  133.9344  160.9749 H   0  0  0  0  0  0  0  0  0  0  0  0
  148.7201  135.2202  160.8281 H   0  0  0  0  0  0  0  0  0  0  0  0
  149.8304  135.7486  159.1011 H   0  0  0  0  0  0  0  0  0  0  0  0
  148.9053  136.4196  157.7728 H   0  0  0  0  0  0  0  0  0  0  0  0
  149.9101  138.5178  159.6505 H   0  0  0  0  0  0  0  0  0  0  0  0
  151.1949  137.5472  158.9664 H   0  0  0  0  0  0  0  0  0  0  0  0
  151.7437  137.6838  156.6149 H   0  0  0  0  0  0  0  0  0  0  0  0
  150.1867  136.9454  156.2824 H   0  0  0  0  0  0  0  0  0  0  0  0
  151.0667  138.1946  154.2894 H   0  0  0  0  0  0  0  0  0  0  0  0
  149.5320  138.8519  154.8243 H   0  0  0  0  0  0  0  0  0  0  0  0
  149.5339  140.8994  156.0555 H   0  0  0  0  0  0  0  0  0  0  0  0
  152.2755  142.0307  156.7828 H   0  0  0  0  0  0  0  0  0  0  0  0
  151.4277  142.4762  155.3119 H   0  0  0  0  0  0  0  0  0  0  0  0
  149.6484  143.4637  156.6558 H   0  0  0  0  0  0  0  0  0  0  0  0
  152.8442  142.5311  158.4551 H   0  0  0  0  0  0  0  0  0  0  0  0
  153.4390  143.6099  160.6314 H   0  0  0  0  0  0  0  0  0  0  0  0
  151.8509  145.3066  161.5840 H   0  0  0  0  0  0  0  0  0  0  0  0
  150.2163  140.5670  158.4344 H   0  0  0  0  0  0  0  0  0  0  0  0
  151.7598  139.9043  157.9322 H   0  0  0  0  0  0  0  0  0  0  0  0
  149.1274  138.7702  157.3254 H   0  0  0  0  0  0  0  0  0  0  0  0
  149.3095  144.8346  158.4063 H   0  0  0  0  0  0  0  0  0  0  0  0
  1  2  1  0  0  0  0
  1 23  1  0  0  0  0
  1 24  1  0  0  0  0
  1 25  1  0  0  0  0
  2  3  1  0  0  0  0
  2  4  1  0  0  0  0
  2 26  1  0  0  0  0
  3 27  1  0  0  0  0
  3 28  1  0  0  0  0
  3 29  1  0  0  0  0
  4  5  1  0  0  0  0
  4 30  1  0  0  0  0
  5  6  2  0  0  0  0
  5  7  1  0  0  0  0
  7  8  1  0  0  0  0
  7 31  1  0  0  0  0
  7 32  1  0  0  0  0
  8  9  1  0  0  0  0
  8 33  1  0  0  0  0
  8 34  1  0  0  0  0
  9 22  1  0  0  0  0
  9 10  1  0  0  0  0
  9 48  1  0  0  0  0
 10 11  1  0  0  0  0
 10 35  1  0  0  0  0
 10 36  1  0  0  0  0
 11 12  1  0  0  0  0
 11 37  1  0  0  0  0
 11 38  1  0  0  0  0
 12 13  1  0  0  0  0
 13 14  1  0  0  0  0
 13 22  1  0  0  0  0
 13 39  1  0  0  0  0
 14 15  1  0  0  0  0
 14 40  1  0  0  0  0
 14 41  1  0  0  0  0
 15 16  1  0  0  0  0
 15 42  1  0  0  0  0
 16 21  1  0  0  0  0
 16 17  2  0  0  0  0
 17 18  1  0  0  0  0
 17 43  1  0  0  0  0
 18 19  2  0  0  0  0
 18 44  1  0  0  0  0
 19 20  1  0  0  0  0
 19 45  1  0  0  0  0
 20 21  2  0  0  0  0
 21 49  1  0  0  0  0
 22 46  1  0  0  0  0
 22 47  1  0  0  0  0
M  CHG  1   9   1
M  CHG  1  21   1
M  END
> <s_m_source_file>
AV-unprocessed.smi

> <i_m_source_file_index>
652

> <i_lp_mmshare_version>
43012

> <i_f3d_flags>
0

> <s_epik_input>
W0NIM11bQ0hdKFtDSDNdKVtOSF1DKD1PKVtDSDJdW0NIMl1OMVtDSDJdW0NIMl1PW0NASF0oW0NIMl0xKVtDSDJdW05IXWMyW2NIXVtjSF1bY0hdbm4y

> <s_epik_cmdline>
J2VwaWtfcHl0aG9uJywgJy1waCcsICc3LjAnLCAnLXRuJywgJzgnLCAnLW1hJywgJzIwMCcsICctbWV0YWxfYmluZGluZycsICctaW1hZScsICc8aW5maWxlLm1hZT4nLCAnLW9tYWUnLCAnPG91dGZpbGUubWFlPic=

> <r_lp_tautomer_probability>
0.966961

> <r_epik_Ionization_Penalty>
2.79885

> <r_epik_Ionization_Penalty_Charging>
2.79884

> <r_epik_Ionization_Penalty_Neutral>
3.2567e-06

> <r_epik_State_Penalty>
2.43203

> <r_epik_Charging_Adjusted_Penalty>
5.23087

> <i_epik_Tot_Q>
2

> <i_epik_Tot_abs_Q>
2

> <r_epik_Metal_State_Penalty>
2.43963

> <b_epik_Metal_Only>
0

> <s_lp_Force_Field>
OPLS_2005

> <r_lp_Energy>
30.0621

> <b_lp_Chiralities_Consistent>
1

> <s_lp_Variant>
AV-unprocessed.smi:652-10

> <Gold.Version>
5.8.1

> <Gold.Id.Protein>
6NUR|6NUR_protein|mol2

> <Gold.PLP.Fitness>
57.4544

> <Gold.PLP.PLP>
-42.5453

> <Gold.PLP.part.hbond>
-4.7504

> <Gold.PLP.part.metal>
0.0000

> <Gold.PLP.part.buried>
-8.3033

> <Gold.PLP.part.nonpolar>
-31.1249

> <Gold.PLP.part.repulsive>
0.6529

> <Gold.PLP.ligand.clash>
0.0000

> <Gold.PLP.ligand.torsion>
0.7621

> <Gold.PLP.Chemscore.Hbond>
5.4480

> <Gold.PLP.Chemscore.CHOScore>
0.0000

> <Gold.PLP.Chemscore.Metal>
0.0000

> <Gold.Chemscore.Hbonds>
donor molecule, donor type, donor heavy atom, donor atom, acceptor molecule, acceptor atom, score
      L1  H    15    42       P1  8028  1.82
      L1  H    21    49       P1  8029  1.56
      P1  H  6934  6947       L1     6  0.79
      P1  H  7989  7998       L1    12  0.98

> <Gold.PLP.Chemscore.Internal.Correction>
0.0893

> <Gold.Rescore>
     Score         DG    S(hbond)    S(metal)    S(lipo)     H(rot)  DE(clash)    DE(int)     intcor
     20.86     -21.78       3.16        0.00     100.09       2.33       0.15       0.77       ----

> <Gold.Chemscore.Fitness>
20.8612

> <Gold.Chemscore.DG>
-21.7826

> <Gold.Chemscore.ZeroCoef>
-5.4800

> <Gold.Chemscore.Hbond>
3.1627

> <Gold.Chemscore.Metal>
0.0000

> <Gold.Chemscore.Lipo>
100.0913

> <Gold.Chemscore.Internal_Hbond>
0.0000

> <Gold.Chemscore.DEClash>
0.1536

> <Gold.Chemscore.DEInternal>
0.7679

> <Gold.Chemscore.Rot>
2.3326

> <Gold.Chemscore.Internal.Correction>
   9.000000E+99

> <Gold.Chemscore.Hbonds>
donor molecule, donor type, donor heavy atom, donor atom, acceptor molecule, acceptor atom, score
      L1  H    15    42       P1  8028  0.88
      L1  H    21    49       P1  8029  0.42
      P1  H  6934  6947       L1     6  0.58
      P1  H  7989  7998       L1    12  0.73

> <Gold.Chemscore.Hbond.Weighted>
-10.5633

> <Gold.Chemscore.Metal.Weighted>
-0.0000

> <Gold.Chemscore.Lipo.Weighted>
-11.7107

> <Gold.Chemscore.Internal_Hbond.Weighted>
0.0000

> <Gold.Chemscore.DEClash.Weighted>
0.1536

> <Gold.Chemscore.DEInternal.Weighted>
0.7679

> <Gold.Chemscore.Rot.Weighted>
5.9714

> <Gold.Chemscore.Internal.Correction.Weighted>
   9.000000E+99

> <Gold.Protein.RotatedTorsions>
[ 6907 6896 6895 6894 ] final   50.72 input  -60.11 | X-H torsion
[ 7974 7965 7964 7962 ] final  110.53 input  175.53 | X-H torsion
[ 8008 7997 7996 7995 ] final   -2.93 input   59.86 | X-H torsion
[ 10167 10162 10161 10158 ] final   53.87 input  -65.29 | X-H torsion
[ 10718 10713 10712 10709 ] final    0.02 input   66.30 | X-H torsion
[ 10763 10752 10751 10750 ] final   29.06 input  -60.55 | X-H torsion
[ 11005 11000 10999 10996 ] final   98.56 input  -57.11 | X-H torsion

> <Gold.Protein.ActiveResidues>
 VAL166  LYS551  ARG553  GLY616  TRP617  ASP618  TYR619  PRO620  LYS621  CYS622 
 ASP623  PHE694  ASN695  SER759  ASP760  ASP761  ALA762  ILE779  LEU786  VAL792 
 PHE793  MET794  SER795  GLU796  ALA797  LYS798  CYS799  TRP800  GLU811  SER814 

> <Gold.Protein.RotatedAtoms>
  152.3049  134.7567  160.0349 H   0  0  0  0  0  0  0  0  0  0  0  0  # atno 6907 bound_to 6896
  151.8067  133.3371  159.3551 H   0  0  0  0  0  0  0  0  0  0  0  0  # atno 6908 bound_to 6896
  150.7292  134.5632  159.5897 H   0  0  0  0  0  0  0  0  0  0  0  0  # atno 6909 bound_to 6896
  145.2537  139.2729  143.4053 H   0  0  0  0  0  0  0  0  0  0  0  0  # atno 7974 bound_to 7965
  154.6303  140.2522  155.7441 H   0  0  0  0  0  0  0  0  0  0  0  0  # atno 8008 bound_to 7997
  156.2476  140.2908  156.0572 H   0  0  0  0  0  0  0  0  0  0  0  0  # atno 8009 bound_to 7997
  155.1755  140.0387  157.2862 H   0  0  0  0  0  0  0  0  0  0  0  0  # atno 8010 bound_to 7997
  140.2361  144.3634  150.6397 H   0  0  0  0  0  0  0  0  0  0  0  0  # atno 10167 bound_to 10162
  156.8272  130.5476  149.5691 H   0  0  0  0  0  0  0  0  0  0  0  0  # atno 10718 bound_to 10713
  153.0453  135.6498  154.0833 H   0  0  0  0  0  0  0  0  0  0  0  0  # atno 10763 bound_to 10752
  154.0532  135.2894  155.3338 H   0  0  0  0  0  0  0  0  0  0  0  0  # atno 10764 bound_to 10752
  154.6706  135.5357  153.8199 H   0  0  0  0  0  0  0  0  0  0  0  0  # atno 10765 bound_to 10752
  139.8772  134.9055  156.4474 H   0  0  0  0  0  0  0  0  0  0  0  0  # atno 11005 bound_to 11000
  146.3295  140.2935  142.8616 LP  0  0  0  0  0  0  0  0  0  0  0  0  # atno 17320 bound_to 7965
  144.9480  140.8148  143.5590 LP  0  0  0  0  0  0  0  0  0  0  0  0  # atno 17321 bound_to 7965
  140.6149  143.2171  151.6813 LP  0  0  0  0  0  0  0  0  0  0  0  0  # atno 17342 bound_to 10162
  139.5093  144.3581  152.0588 LP  0  0  0  0  0  0  0  0  0  0  0  0  # atno 17343 bound_to 10162
  156.0955  130.5929  150.9806 LP  0  0  0  0  0  0  0  0  0  0  0  0  # atno 17370 bound_to 10713
  157.6426  131.0908  150.8220 LP  0  0  0  0  0  0  0  0  0  0  0  0  # atno 17371 bound_to 10713
  140.8956  133.7816  155.9621 LP  0  0  0  0  0  0  0  0  0  0  0  0  # atno 17394 bound_to 11000
  140.8706  134.2730  157.5192 LP  0  0  0  0  0  0  0  0  0  0  0  0  # atno 17395 bound_to 11000

$$$$
