AV-unprocessed.smi:2699|AV-procd|sdf|10423|dock1
  -GOLD-   2272014463D 1   1.00000     0.00000
 Structure written by MMmdl.
 42 44  0  0  0  0  0  0  0  0  2 V2000
  148.7880  140.2256  154.1341 C   0  0  0  0  0  0  0  0  0  0  0  0
  149.8935  139.3217  154.6679 C   0  0  0  0  0  0  0  0  0  0  0  0
  149.9425  138.0186  154.3142 C   0  0  0  0  0  0  0  0  0  0  0  0
  150.9534  137.1775  154.7603 C   0  0  0  0  0  0  0  0  0  0  0  0
  151.0017  135.9697  154.4386 O   0  5  0  0  0  0  0  0  0  0  0  0
  151.9096  137.7612  155.5811 C   0  0  0  0  0  0  0  0  0  0  0  0
  151.9139  139.1601  155.9917 C   0  0  0  0  0  0  0  0  0  0  0  0
  152.7967  139.6276  156.7133 O   0  0  0  0  0  0  0  0  0  0  0  0
  150.8696  139.8997  155.5232 N   0  0  0  0  0  0  0  0  0  0  0  0
  150.7618  141.3184  155.9352 C   0  0  0  0  0  0  0  0  0  0  0  0
  150.8022  141.5267  157.4627 C   0  0  0  0  0  0  0  0  0  0  0  0
  150.7548  140.5654  158.2288 O   0  0  0  0  0  0  0  0  0  0  0  0
  150.9020  142.7773  157.9389 N   0  0  0  0  0  0  0  0  0  0  0  0
  150.9539  143.1682  159.3441 C   0  0  0  0  0  0  0  0  0  0  0  0
  152.2287  143.9685  159.6677 C   0  0  0  0  0  0  0  0  0  0  0  0
  153.1692  143.0429  160.4444 C   0  0  0  0  0  0  0  0  0  0  0  0
  152.9953  141.5430  160.4475 C   0  0  0  0  0  0  0  0  0  0  0  0
  152.7905  142.3338  161.7242 C   0  0  0  0  0  0  0  0  0  0  0  0
  152.8702  144.6725  158.4533 C   0  0  0  0  0  0  0  0  0  0  0  0
  152.0773  145.9353  158.7868 C   0  0  0  0  0  0  0  0  0  0  0  0
  151.9770  145.3971  160.2131 C   0  0  0  0  0  0  0  0  0  0  0  0
  148.2700  139.7493  153.3013 H   0  0  0  0  0  0  0  0  0  0  0  0
  149.1772  141.1718  153.7594 H   0  0  0  0  0  0  0  0  0  0  0  0
  148.0489  140.4254  154.9102 H   0  0  0  0  0  0  0  0  0  0  0  0
  149.1756  137.6229  153.6636 H   0  0  0  0  0  0  0  0  0  0  0  0
  152.7163  137.1434  155.9489 H   0  0  0  0  0  0  0  0  0  0  0  0
  151.5323  141.9287  155.4676 H   0  0  0  0  0  0  0  0  0  0  0  0
  149.8344  141.7466  155.5517 H   0  0  0  0  0  0  0  0  0  0  0  0
  150.9433  143.5269  157.2638 H   0  0  0  0  0  0  0  0  0  0  0  0
  150.0680  143.7555  159.5908 H   0  0  0  0  0  0  0  0  0  0  0  0
  150.9021  142.2662  159.9551 H   0  0  0  0  0  0  0  0  0  0  0  0
  154.1999  143.3936  160.4295 H   0  0  0  0  0  0  0  0  0  0  0  0
  152.1109  141.1304  159.9656 H   0  0  0  0  0  0  0  0  0  0  0  0
  153.8945  140.9359  160.3678 H   0  0  0  0  0  0  0  0  0  0  0  0
  153.5569  142.2479  162.4917 H   0  0  0  0  0  0  0  0  0  0  0  0
  151.7756  142.4336  162.1005 H   0  0  0  0  0  0  0  0  0  0  0  0
  153.9461  144.8193  158.5634 H   0  0  0  0  0  0  0  0  0  0  0  0
  152.6311  144.2289  157.4862 H   0  0  0  0  0  0  0  0  0  0  0  0
  152.6366  146.8657  158.6868 H   0  0  0  0  0  0  0  0  0  0  0  0
  151.1134  145.9830  158.2778 H   0  0  0  0  0  0  0  0  0  0  0  0
  151.0017  145.5460  160.6779 H   0  0  0  0  0  0  0  0  0  0  0  0
  152.7705  145.7868  160.8498 H   0  0  0  0  0  0  0  0  0  0  0  0
  1  2  1  0  0  0  0
  1 22  1  0  0  0  0
  1 23  1  0  0  0  0
  1 24  1  0  0  0  0
  2  9  1  0  0  0  0
  2  3  2  0  0  0  0
  3  4  1  0  0  0  0
  3 25  1  0  0  0  0
  4  5  1  0  0  0  0
  4  6  2  0  0  0  0
  6  7  1  0  0  0  0
  6 26  1  0  0  0  0
  7  8  2  0  0  0  0
  7  9  1  0  0  0  0
  9 10  1  0  0  0  0
 10 11  1  0  0  0  0
 10 27  1  0  0  0  0
 10 28  1  0  0  0  0
 11 12  2  0  0  0  0
 11 13  1  0  0  0  0
 13 14  1  0  0  0  0
 13 29  1  0  0  0  0
 14 15  1  0  0  0  0
 14 30  1  0  0  0  0
 14 31  1  0  0  0  0
 15 21  1  0  0  0  0
 15 16  1  0  0  0  0
 15 19  1  0  0  0  0
 16 18  1  0  0  0  0
 16 17  1  0  0  0  0
 16 32  1  0  0  0  0
 17 18  1  0  0  0  0
 17 33  1  0  0  0  0
 17 34  1  0  0  0  0
 18 35  1  0  0  0  0
 18 36  1  0  0  0  0
 19 20  1  0  0  0  0
 19 37  1  0  0  0  0
 19 38  1  0  0  0  0
 20 21  1  0  0  0  0
 20 39  1  0  0  0  0
 20 40  1  0  0  0  0
 21 41  1  0  0  0  0
 21 42  1  0  0  0  0
M  CHG  1   5  -1
M  END
> <s_m_source_file>
AV-unprocessed.smi

> <i_m_source_file_index>
2699

> <i_lp_mmshare_version>
43012

> <i_f3d_flags>
0

> <s_epik_input>
W0NIM11jMVtjSF1jKFtPSF0pW2NIXWMoPU8pbjFbQ0gyXUMoPU8pW05IXVtDSDJdQzIoW0NIXTNbQ0gyXVtDSDJdMylbQ0gyXVtDSDJdW0NIMl0y

> <s_epik_cmdline>
J2VwaWtfcHl0aG9uJywgJy1waCcsICc3LjAnLCAnLXRuJywgJzgnLCAnLW1hJywgJzIwMCcsICctbWV0YWxfYmluZGluZycsICctaW1hZScsICc8aW5maWxlLm1hZT4nLCAnLW9tYWUnLCAnPG91dGZpbGUubWFlPic=

> <r_lp_tautomer_probability>
1

> <r_epik_Ionization_Penalty>
0.201472

> <r_epik_Ionization_Penalty_Charging>
0.201472

> <r_epik_Ionization_Penalty_Neutral>
1.82775e-08

> <r_epik_State_Penalty>
0.183831

> <r_epik_Charging_Adjusted_Penalty>
0.385303

> <i_epik_Tot_Q>
-1

> <i_epik_Tot_abs_Q>
1

> <r_epik_Metal_State_Penalty>
0.183831

> <b_epik_Metal_Only>
0

> <s_lp_Force_Field>
OPLS_2005

> <r_lp_Energy>
45.0719

> <b_lp_Chiralities_Consistent>
1

> <s_lp_Variant>
AV-unprocessed.smi:2699-1

> <Gold.Version>
5.8.1

> <Gold.Id.Protein>
6NUR|6NUR_protein|mol2

> <Gold.PLP.Fitness>
52.3225

> <Gold.PLP.PLP>
-45.4715

> <Gold.PLP.part.hbond>
-2.0000

> <Gold.PLP.part.metal>
0.0000

> <Gold.PLP.part.buried>
-2.3653

> <Gold.PLP.part.nonpolar>
-43.0245

> <Gold.PLP.part.repulsive>
1.6376

> <Gold.PLP.ligand.clash>
0.0000

> <Gold.PLP.ligand.torsion>
1.9954

> <Gold.PLP.Chemscore.Hbond>
3.0000

> <Gold.PLP.Chemscore.CHOScore>
0.0000

> <Gold.PLP.Chemscore.Metal>
0.0000

> <Gold.Chemscore.Hbonds>
donor molecule, donor type, donor heavy atom, donor atom, acceptor molecule, acceptor atom, score
      P1  H  7997  8010       L1     8  1.00
      P1  H 10752 10764       L1     5  2.00

> <Gold.PLP.Chemscore.Internal.Correction>
1.8418

> <Gold.Rescore>
     Score         DG    S(hbond)    S(metal)    S(lipo)     H(rot)  DE(clash)    DE(int)     intcor
     15.04     -22.47       1.69        0.00     134.25       1.71       1.42       6.00       ----

> <Gold.Chemscore.Fitness>
15.0428

> <Gold.Chemscore.DG>
-22.4663

> <Gold.Chemscore.ZeroCoef>
-5.4800

> <Gold.Chemscore.Hbond>
1.6931

> <Gold.Chemscore.Metal>
0.0000

> <Gold.Chemscore.Lipo>
134.2514

> <Gold.Chemscore.Internal_Hbond>
0.0000

> <Gold.Chemscore.DEClash>
1.4215

> <Gold.Chemscore.DEInternal>
6.0021

> <Gold.Chemscore.Rot>
1.7094

> <Gold.Chemscore.Internal.Correction>
   9.000000E+99

> <Gold.Chemscore.Hbonds>
donor molecule, donor type, donor heavy atom, donor atom, acceptor molecule, acceptor atom, score
      P1  H  7997  8010       L1     8  1.00
      P1  H 10752 10764       L1     5  0.34

> <Gold.Chemscore.Hbond.Weighted>
-5.6549

> <Gold.Chemscore.Metal.Weighted>
-0.0000

> <Gold.Chemscore.Lipo.Weighted>
-15.7074

> <Gold.Chemscore.Internal_Hbond.Weighted>
0.0000

> <Gold.Chemscore.DEClash.Weighted>
1.4215

> <Gold.Chemscore.DEInternal.Weighted>
6.0021

> <Gold.Chemscore.Rot.Weighted>
4.3760

> <Gold.Chemscore.Internal.Correction.Weighted>
   9.000000E+99

> <Gold.Protein.RotatedTorsions>
[ 6907 6896 6895 6894 ] final   -7.12 input  -60.11 | X-H torsion
[ 7974 7965 7964 7962 ] final -120.76 input  175.53 | X-H torsion
[ 8008 7997 7996 7995 ] final   73.35 input   59.86 | X-H torsion
[ 10167 10162 10161 10158 ] final -179.32 input  -65.29 | X-H torsion
[ 10718 10713 10712 10709 ] final   35.09 input   66.30 | X-H torsion
[ 10763 10752 10751 10750 ] final  -57.89 input  -60.55 | X-H torsion
[ 11005 11000 10999 10996 ] final -158.71 input  -57.11 | X-H torsion

> <Gold.Protein.ActiveResidues>
 VAL166  LYS551  ARG553  GLY616  TRP617  ASP618  TYR619  PRO620  LYS621  CYS622 
 ASP623  PHE694  ASN695  SER759  ASP760  ASP761  ALA762  ILE779  LEU786  VAL792 
 PHE793  MET794  SER795  GLU796  ALA797  LYS798  CYS799  TRP800  GLU811  SER814 

> <Gold.Protein.RotatedAtoms>
  151.4547  135.1033  159.9707 H   0  0  0  0  0  0  0  0  0  0  0  0  # atno 6907 bound_to 6896
  152.4875  133.8408  159.7162 H   0  0  0  0  0  0  0  0  0  0  0  0  # atno 6908 bound_to 6896
  150.8998  133.7074  159.2909 H   0  0  0  0  0  0  0  0  0  0  0  0  # atno 6909 bound_to 6896
  145.0478  140.8195  143.4227 H   0  0  0  0  0  0  0  0  0  0  0  0  # atno 7974 bound_to 7965
  155.7823  140.3481  155.5304 H   0  0  0  0  0  0  0  0  0  0  0  0  # atno 8008 bound_to 7997
  155.8716  140.0987  157.1567 H   0  0  0  0  0  0  0  0  0  0  0  0  # atno 8009 bound_to 7997
  154.4018  140.1339  156.4073 H   0  0  0  0  0  0  0  0  0  0  0  0  # atno 8010 bound_to 7997
  139.5391  144.2412  152.0858 H   0  0  0  0  0  0  0  0  0  0  0  0  # atno 10167 bound_to 10162
  157.3184  130.7435  149.6769 H   0  0  0  0  0  0  0  0  0  0  0  0  # atno 10718 bound_to 10713
  154.2295  135.6363  153.5170 H   0  0  0  0  0  0  0  0  0  0  0  0  # atno 10763 bound_to 10752
  152.9952  135.5516  154.6028 H   0  0  0  0  0  0  0  0  0  0  0  0  # atno 10764 bound_to 10752
  154.5507  135.2901  155.0985 H   0  0  0  0  0  0  0  0  0  0  0  0  # atno 10765 bound_to 10752
  140.6506  134.4455  157.5235 H   0  0  0  0  0  0  0  0  0  0  0  0  # atno 11005 bound_to 11000
  145.1565  139.2483  143.5413 LP  0  0  0  0  0  0  0  0  0  0  0  0  # atno 17320 bound_to 7965
  146.3515  140.1281  142.8598 LP  0  0  0  0  0  0  0  0  0  0  0  0  # atno 17321 bound_to 7965
  140.1888  144.4772  150.6490 LP  0  0  0  0  0  0  0  0  0  0  0  0  # atno 17342 bound_to 10162
  140.6613  143.2253  151.5849 LP  0  0  0  0  0  0  0  0  0  0  0  0  # atno 17343 bound_to 10162
  155.9683  130.4230  150.4544 LP  0  0  0  0  0  0  0  0  0  0  0  0  # atno 17370 bound_to 10713
  157.2555  131.0556  151.2352 LP  0  0  0  0  0  0  0  0  0  0  0  0  # atno 17371 bound_to 10713
  139.9047  134.8476  156.1753 LP  0  0  0  0  0  0  0  0  0  0  0  0  # atno 17394 bound_to 11000
  141.0539  133.6875  156.1824 LP  0  0  0  0  0  0  0  0  0  0  0  0  # atno 17395 bound_to 11000

$$$$
