AV-unprocessed.smi:2426|AV-procd|sdf|9576|dock6
  -GOLD-   2272013213D 1   1.00000     0.00000
 Structure written by MMmdl.
 36 37  0  0  0  0  0  0  0  0  1 V2000
  146.9005  139.3292  153.0633 C   0  0  0  0  0  0  0  0  0  0  0  0
  147.5872  140.1356  154.0137 O   0  0  0  0  0  0  0  0  0  0  0  0
  148.8687  139.7718  154.3716 C   0  0  0  0  0  0  0  0  0  0  0  0
  149.5857  140.5744  155.2825 C   0  0  0  0  0  0  0  0  0  0  0  0
  150.8950  140.1663  155.6226 C   0  0  0  0  0  0  0  0  0  0  0  0
  151.5814  141.0014  156.5432 N   0  0  0  0  0  0  0  0  0  0  0  0
  151.0561  141.8489  157.4453 C   0  0  0  0  0  0  0  0  0  0  0  0
  149.8533  142.0397  157.6272 O   0  0  0  0  0  0  0  0  0  0  0  0
  152.0186  142.4761  158.1375 N   0  0  0  0  0  0  0  0  0  0  0  0
  151.8002  143.4573  159.1967 C   0  0  2  0  0  0  0  0  0  0  0  0
  151.9738  144.8817  158.6452 C   0  0  0  0  0  0  0  0  0  0  0  0
  152.7573  143.1674  160.3515 C   0  0  0  0  0  0  0  0  0  0  0  0
  152.8318  141.7546  160.9511 C   0  0  0  0  0  0  0  0  0  0  0  0
  153.0845  142.3979  162.3175 C   0  0  0  0  0  0  0  0  0  0  0  0
  152.4313  143.6687  161.7669 C   0  0  0  0  0  0  0  0  0  0  0  0
  151.4155  139.0395  155.0765 N   0  0  0  0  0  0  0  0  0  0  0  0
  150.6559  138.3492  154.2242 C   0  0  0  0  0  0  0  0  0  0  0  0
  149.4146  138.6507  153.8417 N   0  0  0  0  0  0  0  0  0  0  0  0
  145.9082  139.7440  152.8876 H   0  0  0  0  0  0  0  0  0  0  0  0
  146.7725  138.3078  153.4245 H   0  0  0  0  0  0  0  0  0  0  0  0
  147.4244  139.3078  152.1067 H   0  0  0  0  0  0  0  0  0  0  0  0
  149.1436  141.4670  155.7005 H   0  0  0  0  0  0  0  0  0  0  0  0
  152.5886  140.9485  156.5102 H   0  0  0  0  0  0  0  0  0  0  0  0
  152.9794  142.2578  157.9181 H   0  0  0  0  0  0  0  0  0  0  0  0
  150.7759  143.3583  159.5612 H   0  0  0  0  0  0  0  0  0  0  0  0
  151.7995  145.6271  159.4212 H   0  0  0  0  0  0  0  0  0  0  0  0
  151.2698  145.0823  157.8371 H   0  0  0  0  0  0  0  0  0  0  0  0
  152.9806  145.0358  158.2558 H   0  0  0  0  0  0  0  0  0  0  0  0
  153.7708  143.4898  160.1013 H   0  0  0  0  0  0  0  0  0  0  0  0
  151.8795  141.2236  160.9061 H   0  0  0  0  0  0  0  0  0  0  0  0
  153.6517  141.1418  160.5754 H   0  0  0  0  0  0  0  0  0  0  0  0
  152.5527  141.9325  163.1479 H   0  0  0  0  0  0  0  0  0  0  0  0
  154.1459  142.5276  162.5352 H   0  0  0  0  0  0  0  0  0  0  0  0
  152.9293  144.5973  162.0472 H   0  0  0  0  0  0  0  0  0  0  0  0
  151.3592  143.7108  161.9659 H   0  0  0  0  0  0  0  0  0  0  0  0
  151.0909  137.4560  153.8011 H   0  0  0  0  0  0  0  0  0  0  0  0
  1  2  1  0  0  0  0
  1 19  1  0  0  0  0
  1 20  1  0  0  0  0
  1 21  1  0  0  0  0
  2  3  1  0  0  0  0
  3 18  1  0  0  0  0
  3  4  2  0  0  0  0
  4  5  1  0  0  0  0
  4 22  1  0  0  0  0
  5  6  1  0  0  0  0
  5 16  2  0  0  0  0
  6  7  1  0  0  0  0
  6 23  1  0  0  0  0
  7  8  2  0  0  0  0
  7  9  1  0  0  0  0
  9 10  1  0  0  0  0
  9 24  1  0  0  0  0
 10 11  1  0  0  0  0
 10 12  1  0  0  0  0
 10 25  1  0  0  0  0
 11 26  1  0  0  0  0
 11 27  1  0  0  0  0
 11 28  1  0  0  0  0
 12 15  1  0  0  0  0
 12 13  1  0  0  0  0
 12 29  1  0  0  0  0
 13 14  1  0  0  0  0
 13 30  1  0  0  0  0
 13 31  1  0  0  0  0
 14 15  1  0  0  0  0
 14 32  1  0  0  0  0
 14 33  1  0  0  0  0
 15 34  1  0  0  0  0
 15 35  1  0  0  0  0
 16 17  1  0  0  0  0
 17 18  2  0  0  0  0
 17 36  1  0  0  0  0
M  END
> <s_m_source_file>
AV-unprocessed.smi

> <i_m_source_file_index>
2426

> <i_lp_mmshare_version>
43012

> <i_f3d_flags>
0

> <s_epik_input>
W0NIM11PYzFbY0hdYyhuW2NIXW4xKVtOSF1DKD1PKVtOSF1bQ0BIXShbQ0gzXSlbQ0hdMltDSDJdW0NIMl1bQ0gyXTI=

> <s_epik_cmdline>
J2VwaWtfcHl0aG9uJywgJy1waCcsICc3LjAnLCAnLXRuJywgJzgnLCAnLW1hJywgJzIwMCcsICctbWV0YWxfYmluZGluZycsICctaW1hZScsICc8aW5maWxlLm1hZT4nLCAnLW9tYWUnLCAnPG91dGZpbGUubWFlPic=

> <r_lp_tautomer_probability>
1

> <r_epik_Ionization_Penalty>
2.84534e-05

> <r_epik_Ionization_Penalty_Charging>
0

> <r_epik_Ionization_Penalty_Neutral>
2.84534e-05

> <r_epik_State_Penalty>
-0

> <r_epik_Charging_Adjusted_Penalty>
0

> <i_epik_Tot_Q>
0

> <i_epik_Tot_abs_Q>
0

> <r_epik_Metal_State_Penalty>
-0

> <b_epik_Metal_Only>
0

> <s_lp_Force_Field>
OPLS_2005

> <r_lp_Energy>
12.1235

> <b_lp_Chiralities_Consistent>
1

> <s_lp_Variant>
AV-unprocessed.smi:2426-1

> <Gold.Version>
5.8.1

> <Gold.Id.Protein>
6NUR|6NUR_protein|mol2

> <Gold.PLP.Fitness>
39.6775

> <Gold.PLP.PLP>
-39.1125

> <Gold.PLP.part.hbond>
-0.1216

> <Gold.PLP.part.metal>
0.0000

> <Gold.PLP.part.buried>
-3.8206

> <Gold.PLP.part.nonpolar>
-36.0104

> <Gold.PLP.part.repulsive>
1.8297

> <Gold.PLP.ligand.clash>
0.0000

> <Gold.PLP.ligand.torsion>
0.6118

> <Gold.PLP.Chemscore.Hbond>
0.0000

> <Gold.PLP.Chemscore.CHOScore>
0.5456

> <Gold.PLP.Chemscore.Metal>
0.0000

> <Gold.Chemscore.Hbonds>
donor molecule, donor type, donor heavy atom, donor atom, acceptor molecule, acceptor atom, score
      L1  C    17    36       P1  7949  0.48

> <Gold.PLP.Chemscore.Internal.Correction>
0.1519

> <Gold.Rescore>
     Score         DG    S(hbond)    S(metal)    S(lipo)     H(rot)  DE(clash)    DE(int)     intcor
      9.57     -11.49       0.00        0.00      86.34       1.60       0.02       1.91       ----

> <Gold.Chemscore.Fitness>
9.5652

> <Gold.Chemscore.DG>
-11.4930

> <Gold.Chemscore.ZeroCoef>
-5.4800

> <Gold.Chemscore.Hbond>
0.0000

> <Gold.Chemscore.Metal>
0.0000

> <Gold.Chemscore.Lipo>
86.3381

> <Gold.Chemscore.Internal_Hbond>
0.0000

> <Gold.Chemscore.DEClash>
0.0227

> <Gold.Chemscore.DEInternal>
1.9051

> <Gold.Chemscore.Rot>
1.5971

> <Gold.Chemscore.Internal.Correction>
   9.000000E+99

> <Gold.Chemscore.Hbond.Weighted>
-0.0000

> <Gold.Chemscore.Metal.Weighted>
-0.0000

> <Gold.Chemscore.Lipo.Weighted>
-10.1016

> <Gold.Chemscore.Internal_Hbond.Weighted>
0.0000

> <Gold.Chemscore.DEClash.Weighted>
0.0227

> <Gold.Chemscore.DEInternal.Weighted>
1.9051

> <Gold.Chemscore.Rot.Weighted>
4.0886

> <Gold.Chemscore.Internal.Correction.Weighted>
   9.000000E+99

> <Gold.Protein.RotatedTorsions>
[ 6907 6896 6895 6894 ] final  -78.05 input  -60.11 | X-H torsion
[ 7974 7965 7964 7962 ] final  102.22 input  175.53 | X-H torsion
[ 8008 7997 7996 7995 ] final  132.38 input   59.86 | X-H torsion
[ 10167 10162 10161 10158 ] final  -59.76 input  -65.29 | X-H torsion
[ 10718 10713 10712 10709 ] final   95.37 input   66.30 | X-H torsion
[ 10763 10752 10751 10750 ] final    1.88 input  -60.55 | X-H torsion
[ 11005 11000 10999 10996 ] final -115.26 input  -57.11 | X-H torsion

> <Gold.Protein.ActiveResidues>
 VAL166  LYS551  ARG553  GLY616  TRP617  ASP618  TYR619  PRO620  LYS621  CYS622 
 ASP623  PHE694  ASN695  SER759  ASP760  ASP761  ALA762  ILE779  LEU786  VAL792 
 PHE793  MET794  SER795  GLU796  ALA797  LYS798  CYS799  TRP800  GLU811  SER814 

> <Gold.Protein.RotatedAtoms>
  150.6983  134.4331  159.5257 H   0  0  0  0  0  0  0  0  0  0  0  0  # atno 6907 bound_to 6896
  152.2054  134.8547  160.0512 H   0  0  0  0  0  0  0  0  0  0  0  0  # atno 6908 bound_to 6896
  151.9452  133.3615  159.4017 H   0  0  0  0  0  0  0  0  0  0  0  0  # atno 6909 bound_to 6896
  145.3620  139.2416  143.3501 H   0  0  0  0  0  0  0  0  0  0  0  0  # atno 7974 bound_to 7965
  156.2982  140.2548  156.3080 H   0  0  0  0  0  0  0  0  0  0  0  0  # atno 8008 bound_to 7997
  154.9354  140.0397  157.2088 H   0  0  0  0  0  0  0  0  0  0  0  0  # atno 8009 bound_to 7997
  154.8178  140.2855  155.5812 H   0  0  0  0  0  0  0  0  0  0  0  0  # atno 8010 bound_to 7997
  140.6115  143.2388  151.5699 H   0  0  0  0  0  0  0  0  0  0  0  0  # atno 10167 bound_to 10162
  157.6939  131.0543  150.4328 H   0  0  0  0  0  0  0  0  0  0  0  0  # atno 10718 bound_to 10713
  153.3025  135.6957  153.7190 H   0  0  0  0  0  0  0  0  0  0  0  0  # atno 10763 bound_to 10752
  153.6099  135.3446  155.2976 H   0  0  0  0  0  0  0  0  0  0  0  0  # atno 10764 bound_to 10752
  154.8554  135.4361  154.2140 H   0  0  0  0  0  0  0  0  0  0  0  0  # atno 10765 bound_to 10752
  141.0499  133.9704  157.2854 H   0  0  0  0  0  0  0  0  0  0  0  0  # atno 11005 bound_to 11000
  146.2923  140.4256  142.8735 LP  0  0  0  0  0  0  0  0  0  0  0  0  # atno 17320 bound_to 7965
  144.8639  140.7179  143.6089 LP  0  0  0  0  0  0  0  0  0  0  0  0  # atno 17321 bound_to 7965
  139.5365  144.2767  152.1261 LP  0  0  0  0  0  0  0  0  0  0  0  0  # atno 17342 bound_to 10162
  140.1968  144.4698  150.6451 LP  0  0  0  0  0  0  0  0  0  0  0  0  # atno 17343 bound_to 10162
  156.4694  130.4049  149.6527 LP  0  0  0  0  0  0  0  0  0  0  0  0  # atno 17370 bound_to 10713
  156.3614  130.7483  151.2456 LP  0  0  0  0  0  0  0  0  0  0  0  0  # atno 17371 bound_to 10713
  139.9342  135.0198  156.8500 LP  0  0  0  0  0  0  0  0  0  0  0  0  # atno 17394 bound_to 11000
  140.6076  134.0113  155.7563 LP  0  0  0  0  0  0  0  0  0  0  0  0  # atno 17395 bound_to 11000

$$$$
