AV-unprocessed.smi:2286|AV-procd|sdf|9204|dock9
  -GOLD-   2272012423D 1   1.00000     0.00000
 Structure written by MMmdl.
 46 47  0  0  0  0  0  0  0  0  1 V2000
  151.0829  145.1693  159.0183 C   0  0  0  0  0  0  0  0  0  0  0  0
  151.7219  143.8055  158.8596 C   0  0  0  0  0  0  0  0  0  0  0  0
  152.6918  143.3503  159.7732 C   0  0  0  0  0  0  0  0  0  0  0  0
  153.2476  142.0718  159.5706 C   0  0  0  0  0  0  0  0  0  0  0  0
  154.2919  141.5191  160.5172 C   0  0  0  0  0  0  0  0  0  0  0  0
  152.8908  141.2668  158.5469 N   0  0  0  0  0  0  0  0  0  0  0  0
  151.9580  141.6949  157.6606 C   0  0  0  0  0  0  0  0  0  0  0  0
  151.5110  140.9259  156.5536 N   0  0  0  0  0  0  0  0  0  0  0  0
  151.9036  139.6939  156.1840 C   0  0  0  0  0  0  0  0  0  0  0  0
  152.7671  139.0205  156.7477 O   0  0  0  0  0  0  0  0  0  0  0  0
  151.2270  139.2736  155.1047 N   0  0  0  0  0  0  0  0  0  0  0  0
  151.4130  137.9835  154.4451 C   0  0  0  0  0  0  0  0  0  0  0  0
  150.6949  136.8319  155.1589 C   0  0  0  0  0  0  0  0  0  0  0  0
  150.2889  136.9579  156.3155 O   0  0  0  0  0  0  0  0  0  0  0  0
  150.5693  135.6968  154.4544 N   0  0  0  0  0  0  0  0  0  0  0  0
  149.9452  134.4670  154.9334 C   0  0  0  0  0  0  0  0  0  0  0  0
  150.8667  133.7459  155.9399 C   0  0  0  0  0  0  0  0  0  0  0  0
  150.2696  132.4031  156.3913 C   0  0  0  0  0  0  0  0  0  0  0  0
  149.9525  131.4999  155.1893 C   0  0  0  0  0  0  0  0  0  0  0  0
  149.0262  132.2119  154.1915 C   0  0  0  0  0  0  0  0  0  0  0  0
  149.6238  133.5529  153.7353 C   0  0  0  0  0  0  0  0  0  0  0  0
  151.3535  142.9658  157.7892 C   0  0  0  0  0  0  0  0  0  0  0  0
  151.3928  145.6469  159.9485 H   0  0  0  0  0  0  0  0  0  0  0  0
  149.9964  145.0795  159.0282 H   0  0  0  0  0  0  0  0  0  0  0  0
  151.3675  145.8178  158.1895 H   0  0  0  0  0  0  0  0  0  0  0  0
  153.0012  143.9634  160.6072 H   0  0  0  0  0  0  0  0  0  0  0  0
  154.7048  142.3051  161.1503 H   0  0  0  0  0  0  0  0  0  0  0  0
  155.1133  141.0662  159.9609 H   0  0  0  0  0  0  0  0  0  0  0  0
  153.8504  140.7575  161.1603 H   0  0  0  0  0  0  0  0  0  0  0  0
  150.7956  141.3569  155.9873 H   0  0  0  0  0  0  0  0  0  0  0  0
  150.5421  139.8945  154.6997 H   0  0  0  0  0  0  0  0  0  0  0  0
  151.0835  138.0398  153.4060 H   0  0  0  0  0  0  0  0  0  0  0  0
  152.4804  137.7637  154.4222 H   0  0  0  0  0  0  0  0  0  0  0  0
  150.9348  135.6835  153.5132 H   0  0  0  0  0  0  0  0  0  0  0  0
  149.0057  134.7169  155.4304 H   0  0  0  0  0  0  0  0  0  0  0  0
  151.8435  133.5714  155.4864 H   0  0  0  0  0  0  0  0  0  0  0  0
  151.0409  134.3767  156.8125 H   0  0  0  0  0  0  0  0  0  0  0  0
  150.9622  131.8965  157.0640 H   0  0  0  0  0  0  0  0  0  0  0  0
  149.3588  132.5831  156.9635 H   0  0  0  0  0  0  0  0  0  0  0  0
  150.8799  131.2164  154.6899 H   0  0  0  0  0  0  0  0  0  0  0  0
  149.4897  130.5740  155.5316 H   0  0  0  0  0  0  0  0  0  0  0  0
  148.8487  131.5713  153.3274 H   0  0  0  0  0  0  0  0  0  0  0  0
  148.0535  132.3834  154.6544 H   0  0  0  0  0  0  0  0  0  0  0  0
  148.9284  134.0529  153.0599 H   0  0  0  0  0  0  0  0  0  0  0  0
  150.5313  133.3641  153.1597 H   0  0  0  0  0  0  0  0  0  0  0  0
  150.6111  143.2951  157.0763 H   0  0  0  0  0  0  0  0  0  0  0  0
  1  2  1  0  0  0  0
  1 23  1  0  0  0  0
  1 24  1  0  0  0  0
  1 25  1  0  0  0  0
  2 22  1  0  0  0  0
  2  3  2  0  0  0  0
  3  4  1  0  0  0  0
  3 26  1  0  0  0  0
  4  5  1  0  0  0  0
  4  6  2  0  0  0  0
  5 27  1  0  0  0  0
  5 28  1  0  0  0  0
  5 29  1  0  0  0  0
  6  7  1  0  0  0  0
  7  8  1  0  0  0  0
  7 22  2  0  0  0  0
  8  9  1  0  0  0  0
  8 30  1  0  0  0  0
  9 10  2  0  0  0  0
  9 11  1  0  0  0  0
 11 12  1  0  0  0  0
 11 31  1  0  0  0  0
 12 13  1  0  0  0  0
 12 32  1  0  0  0  0
 12 33  1  0  0  0  0
 13 14  2  0  0  0  0
 13 15  1  0  0  0  0
 15 16  1  0  0  0  0
 15 34  1  0  0  0  0
 16 21  1  0  0  0  0
 16 17  1  0  0  0  0
 16 35  1  0  0  0  0
 17 18  1  0  0  0  0
 17 36  1  0  0  0  0
 17 37  1  0  0  0  0
 18 19  1  0  0  0  0
 18 38  1  0  0  0  0
 18 39  1  0  0  0  0
 19 20  1  0  0  0  0
 19 40  1  0  0  0  0
 19 41  1  0  0  0  0
 20 21  1  0  0  0  0
 20 42  1  0  0  0  0
 20 43  1  0  0  0  0
 21 44  1  0  0  0  0
 21 45  1  0  0  0  0
 22 46  1  0  0  0  0
M  END
> <s_m_source_file>
AV-unprocessed.smi

> <i_m_source_file_index>
2286

> <i_lp_mmshare_version>
43012

> <i_f3d_flags>
0

> <s_epik_input>
W0NIM11jMVtjSF1jKFtDSDNdKW5jKFtjSF0xKVtOSF1DKD1PKVtOSF1bQ0gyXUMoPU8pW05IXVtDSF0yW0NIMl1bQ0gyXVtDSDJdW0NIMl1bQ0gyXTI=

> <s_epik_cmdline>
J2VwaWtfcHl0aG9uJywgJy1waCcsICc3LjAnLCAnLXRuJywgJzgnLCAnLW1hJywgJzIwMCcsICctbWV0YWxfYmluZGluZycsICctaW1hZScsICc8aW5maWxlLm1hZT4nLCAnLW9tYWUnLCAnPG91dGZpbGUubWFlPic=

> <r_lp_tautomer_probability>
1

> <r_epik_Ionization_Penalty>
0.000219548

> <r_epik_Ionization_Penalty_Charging>
0

> <r_epik_Ionization_Penalty_Neutral>
0.000219548

> <r_epik_State_Penalty>
-0

> <r_epik_Charging_Adjusted_Penalty>
0

> <i_epik_Tot_Q>
0

> <i_epik_Tot_abs_Q>
0

> <r_epik_Metal_State_Penalty>
-0

> <b_epik_Metal_Only>
0

> <s_lp_Force_Field>
OPLS_2005

> <r_lp_Energy>
6.54337

> <b_lp_Chiralities_Consistent>
1

> <s_lp_Variant>
AV-unprocessed.smi:2286-1

> <Gold.Version>
5.8.1

> <Gold.Id.Protein>
6NUR|6NUR_protein|mol2

> <Gold.PLP.Fitness>
49.1947

> <Gold.PLP.PLP>
-44.9978

> <Gold.PLP.part.hbond>
-3.0000

> <Gold.PLP.part.metal>
0.0000

> <Gold.PLP.part.buried>
-4.2821

> <Gold.PLP.part.nonpolar>
-36.9359

> <Gold.PLP.part.repulsive>
0.3540

> <Gold.PLP.ligand.clash>
0.0000

> <Gold.PLP.ligand.torsion>
0.5301

> <Gold.PLP.Chemscore.Hbond>
1.7500

> <Gold.PLP.Chemscore.CHOScore>
0.0000

> <Gold.PLP.Chemscore.Metal>
0.0000

> <Gold.Chemscore.Hbonds>
donor molecule, donor type, donor heavy atom, donor atom, acceptor molecule, acceptor atom, score
      L1  H    15    34       P1  7949  0.72
      P1  H  7997  8010       L1    10  1.00

> <Gold.PLP.Chemscore.Internal.Correction>
0.0072

> <Gold.Rescore>
     Score         DG    S(hbond)    S(metal)    S(lipo)     H(rot)  DE(clash)    DE(int)     intcor
     15.59     -17.60       1.04        0.00     106.43       1.48       0.16       1.84       ----

> <Gold.Chemscore.Fitness>
15.5928

> <Gold.Chemscore.DG>
-17.5963

> <Gold.Chemscore.ZeroCoef>
-5.4800

> <Gold.Chemscore.Hbond>
1.0376

> <Gold.Chemscore.Metal>
0.0000

> <Gold.Chemscore.Lipo>
106.4262

> <Gold.Chemscore.Internal_Hbond>
0.0000

> <Gold.Chemscore.DEClash>
0.1632

> <Gold.Chemscore.DEInternal>
1.8402

> <Gold.Chemscore.Rot>
1.4849

> <Gold.Chemscore.Internal.Correction>
   9.000000E+99

> <Gold.Chemscore.Hbonds>
donor molecule, donor type, donor heavy atom, donor atom, acceptor molecule, acceptor atom, score
      L1  H    15    34       P1  7949  0.09
      P1  H  7997  8010       L1    10  0.55

> <Gold.Chemscore.Hbond.Weighted>
-3.4656

> <Gold.Chemscore.Metal.Weighted>
-0.0000

> <Gold.Chemscore.Lipo.Weighted>
-12.4519

> <Gold.Chemscore.Internal_Hbond.Weighted>
0.0000

> <Gold.Chemscore.DEClash.Weighted>
0.1632

> <Gold.Chemscore.DEInternal.Weighted>
1.8402

> <Gold.Chemscore.Rot.Weighted>
3.8012

> <Gold.Chemscore.Internal.Correction.Weighted>
   9.000000E+99

> <Gold.Protein.RotatedTorsions>
[ 6907 6896 6895 6894 ] final  128.69 input  -60.11 | X-H torsion
[ 7974 7965 7964 7962 ] final -114.66 input  175.53 | X-H torsion
[ 8008 7997 7996 7995 ] final   58.15 input   59.86 | X-H torsion
[ 10167 10162 10161 10158 ] final  132.52 input  -65.29 | X-H torsion
[ 10718 10713 10712 10709 ] final  -25.30 input   66.30 | X-H torsion
[ 10763 10752 10751 10750 ] final  -43.73 input  -60.55 | X-H torsion
[ 11005 11000 10999 10996 ] final  148.83 input  -57.11 | X-H torsion

> <Gold.Protein.ActiveResidues>
 VAL166  LYS551  ARG553  GLY616  TRP617  ASP618  TYR619  PRO620  LYS621  CYS622 
 ASP623  PHE694  ASN695  SER759  ASP760  ASP761  ALA762  ILE779  LEU786  VAL792 
 PHE793  MET794  SER795  GLU796  ALA797  LYS798  CYS799  TRP800  GLU811  SER814 

> <Gold.Protein.RotatedAtoms>
  152.3695  133.6400  159.6076 H   0  0  0  0  0  0  0  0  0  0  0  0  # atno 6907 bound_to 6896
  150.7658  133.9293  159.3431 H   0  0  0  0  0  0  0  0  0  0  0  0  # atno 6908 bound_to 6896
  151.7118  135.0912  160.0320 H   0  0  0  0  0  0  0  0  0  0  0  0  # atno 6909 bound_to 6896
  145.1175  140.8649  143.3833 H   0  0  0  0  0  0  0  0  0  0  0  0  # atno 7974 bound_to 7965
  155.5454  140.3485  155.4456 H   0  0  0  0  0  0  0  0  0  0  0  0  # atno 8008 bound_to 7997
  156.0621  140.1342  156.9954 H   0  0  0  0  0  0  0  0  0  0  0  0  # atno 8009 bound_to 7997
  154.4485  140.0983  156.6518 H   0  0  0  0  0  0  0  0  0  0  0  0  # atno 8010 bound_to 7997
  139.5336  144.6658  151.4863 H   0  0  0  0  0  0  0  0  0  0  0  0  # atno 10167 bound_to 10162
  156.4662  130.4514  149.6897 H   0  0  0  0  0  0  0  0  0  0  0  0  # atno 10718 bound_to 10713
  154.0003  135.6694  153.4759 H   0  0  0  0  0  0  0  0  0  0  0  0  # atno 10763 bound_to 10752
  153.0665  135.4998  154.8208 H   0  0  0  0  0  0  0  0  0  0  0  0  # atno 10764 bound_to 10752
  154.7056  135.3087  154.9238 H   0  0  0  0  0  0  0  0  0  0  0  0  # atno 10765 bound_to 10752
  140.0992  134.8993  157.1771 H   0  0  0  0  0  0  0  0  0  0  0  0  # atno 11005 bound_to 11000
  145.0777  139.2983  143.5799 LP  0  0  0  0  0  0  0  0  0  0  0  0  # atno 17320 bound_to 7965
  146.3523  140.0273  142.8653 LP  0  0  0  0  0  0  0  0  0  0  0  0  # atno 17321 bound_to 7965
  140.6529  143.8658  150.6805 LP  0  0  0  0  0  0  0  0  0  0  0  0  # atno 17342 bound_to 10162
  140.2029  143.3945  152.1778 LP  0  0  0  0  0  0  0  0  0  0  0  0  # atno 17343 bound_to 10162
  156.3665  130.7508  151.2486 LP  0  0  0  0  0  0  0  0  0  0  0  0  # atno 17370 bound_to 10713
  157.7494  131.0335  150.4276 LP  0  0  0  0  0  0  0  0  0  0  0  0  # atno 17371 bound_to 10713
  140.3243  134.2881  155.7240 LP  0  0  0  0  0  0  0  0  0  0  0  0  # atno 17394 bound_to 11000
  141.2101  133.7730  156.9955 LP  0  0  0  0  0  0  0  0  0  0  0  0  # atno 17395 bound_to 11000

$$$$
