AV-unprocessed.smi:372|AV-procd|sdf|2445|dock7
  -GOLD-   2262022383D 1   1.00000     0.00000
 Structure written by MMmdl.
 22 23  0  0  0  0  0  0  0  0  2 V2000
  149.7425  140.3571  158.1889 C   0  0  0  0  0  0  0  0  0  0  0  0
  151.2588  140.6042  158.0537 C   0  0  1  0  0  0  0  0  0  0  0  0
  151.6220  142.0775  158.3210 C   0  0  0  0  0  0  0  0  0  0  0  0
  151.2127  143.1215  157.4533 C   0  0  0  0  0  0  0  0  0  0  0  0
  151.5822  144.4457  157.7573 C   0  0  0  0  0  0  0  0  0  0  0  0
  152.3489  144.6909  158.9111 C   0  0  0  0  0  0  0  0  0  0  0  0
  152.7147  143.5933  159.7124 C   0  0  0  0  0  0  0  0  0  0  0  0
  152.3670  142.3211  159.4279 N   0  0  0  0  0  0  0  0  0  0  0  0
  151.9629  139.6799  158.9225 N   0  0  0  0  0  0  0  0  0  0  0  0
  152.7779  138.8802  158.2385 C   0  0  0  0  0  0  0  0  0  0  0  0
  153.4847  138.0459  158.7992 O   0  0  0  0  0  0  0  0  0  0  0  0
  152.6826  139.1388  156.9210 N   0  5  0  0  0  0  0  0  0  0  0  0
  151.7921  140.1284  156.6897 C   0  0  0  0  0  0  0  0  0  0  0  0
  151.4049  140.6008  155.6208 O   0  0  0  0  0  0  0  0  0  0  0  0
  149.1719  140.9766  157.4962 H   0  0  0  0  0  0  0  0  0  0  0  0
  149.3974  140.5881  159.1971 H   0  0  0  0  0  0  0  0  0  0  0  0
  149.4846  139.3172  157.9827 H   0  0  0  0  0  0  0  0  0  0  0  0
  150.6238  142.9304  156.5691 H   0  0  0  0  0  0  0  0  0  0  0  0
  151.2819  145.2601  157.1147 H   0  0  0  0  0  0  0  0  0  0  0  0
  152.6489  145.6940  159.1754 H   0  0  0  0  0  0  0  0  0  0  0  0
  153.3042  143.7406  160.6054 H   0  0  0  0  0  0  0  0  0  0  0  0
  151.8624  139.6776  159.9264 H   0  0  0  0  0  0  0  0  0  0  0  0
  1  2  1  0  0  0  0
  1 15  1  0  0  0  0
  1 16  1  0  0  0  0
  1 17  1  0  0  0  0
  2 13  1  0  0  0  0
  2  3  1  0  0  0  0
  2  9  1  0  0  0  0
  3  8  1  0  0  0  0
  3  4  2  0  0  0  0
  4  5  1  0  0  0  0
  4 18  1  0  0  0  0
  5  6  2  0  0  0  0
  5 19  1  0  0  0  0
  6  7  1  0  0  0  0
  6 20  1  0  0  0  0
  7  8  2  0  0  0  0
  7 21  1  0  0  0  0
  9 10  1  0  0  0  0
  9 22  1  0  0  0  0
 10 11  2  0  0  0  0
 10 12  1  0  0  0  0
 12 13  1  0  0  0  0
 13 14  2  0  0  0  0
M  CHG  1  12  -1
M  END
> <s_m_source_file>
AV-unprocessed.smi

> <i_m_source_file_index>
372

> <i_lp_mmshare_version>
43012

> <i_f3d_flags>
0

> <s_epik_input>
Tz1DMVtOSF1DKD1PKVtOSF1bQ0BAXTEoW0NIM10pYzJbY0hdW2NIXVtjSF1bY0hdbjI=

> <s_epik_cmdline>
J2VwaWtfcHl0aG9uJywgJy1waCcsICc3LjAnLCAnLXRuJywgJzgnLCAnLW1hJywgJzIwMCcsICctbWV0YWxfYmluZGluZycsICctaW1hZScsICc8aW5maWxlLm1hZT4nLCAnLW9tYWUnLCAnPG91dGZpbGUubWFlPic=

> <r_epik_Ionization_Penalty>
1.82492

> <r_epik_Ionization_Penalty_Charging>
1.82122

> <r_epik_Ionization_Penalty_Neutral>
0.00370144

> <r_epik_State_Penalty>
1.71448

> <r_epik_Charging_Adjusted_Penalty>
3.5357

> <i_epik_Tot_Q>
-1

> <i_epik_Tot_abs_Q>
1

> <r_epik_Metal_State_Penalty>
0.405927

> <b_epik_Metal_Only>
0

> <s_lp_Force_Field>
OPLS_2005

> <r_lp_Energy>
9.53623

> <b_lp_Chiralities_Consistent>
1

> <s_lp_Variant>
AV-unprocessed.smi:372-3

> <Gold.Version>
5.8.1

> <Gold.Id.Protein>
6NUR|6NUR_protein|mol2

> <Gold.PLP.Fitness>
35.2832

> <Gold.PLP.PLP>
-27.2392

> <Gold.PLP.part.hbond>
-2.0000

> <Gold.PLP.part.metal>
0.0000

> <Gold.PLP.part.buried>
-3.7125

> <Gold.PLP.part.nonpolar>
-21.8066

> <Gold.PLP.part.repulsive>
0.1411

> <Gold.PLP.ligand.clash>
0.0000

> <Gold.PLP.ligand.torsion>
0.1369

> <Gold.PLP.Chemscore.Hbond>
2.7454

> <Gold.PLP.Chemscore.CHOScore>
0.0000

> <Gold.PLP.Chemscore.Metal>
0.0000

> <Gold.Chemscore.Hbonds>
donor molecule, donor type, donor heavy atom, donor atom, acceptor molecule, acceptor atom, score
      P1  H  7989  7998       L1    14  0.57
      P1  H  7997  8009       L1    12  2.00

> <Gold.PLP.Chemscore.Internal.Correction>
0.0815

> <Gold.Rescore>
     Score         DG    S(hbond)    S(metal)    S(lipo)     H(rot)  DE(clash)    DE(int)     intcor
     13.51     -13.56       0.92        0.00      64.56       1.00       0.00       0.04       ----

> <Gold.Chemscore.Fitness>
13.5122

> <Gold.Chemscore.DG>
-13.5561

> <Gold.Chemscore.ZeroCoef>
-5.4800

> <Gold.Chemscore.Hbond>
0.9228

> <Gold.Chemscore.Metal>
0.0000

> <Gold.Chemscore.Lipo>
64.5624

> <Gold.Chemscore.Internal_Hbond>
0.0000

> <Gold.Chemscore.DEClash>
0.0021

> <Gold.Chemscore.DEInternal>
0.0418

> <Gold.Chemscore.Rot>
1.0000

> <Gold.Chemscore.Internal.Correction>
   9.000000E+99

> <Gold.Chemscore.Hbonds>
donor molecule, donor type, donor heavy atom, donor atom, acceptor molecule, acceptor atom, score
      P1  H  7989  7998       L1    14  0.57
      P1  H  7997  8009       L1    12  0.08

> <Gold.Chemscore.Hbond.Weighted>
-3.0823

> <Gold.Chemscore.Metal.Weighted>
-0.0000

> <Gold.Chemscore.Lipo.Weighted>
-7.5538

> <Gold.Chemscore.Internal_Hbond.Weighted>
0.0000

> <Gold.Chemscore.DEClash.Weighted>
0.0021

> <Gold.Chemscore.DEInternal.Weighted>
0.0418

> <Gold.Chemscore.Rot.Weighted>
2.5600

> <Gold.Chemscore.Internal.Correction.Weighted>
   9.000000E+99

> <Gold.Protein.RotatedTorsions>
[ 6907 6896 6895 6894 ] final   97.02 input  -60.11 | X-H torsion
[ 7974 7965 7964 7962 ] final  -44.00 input  175.53 | X-H torsion
[ 8008 7997 7996 7995 ] final -179.18 input   59.86 | X-H torsion
[ 10167 10162 10161 10158 ] final  142.67 input  -65.29 | X-H torsion
[ 10718 10713 10712 10709 ] final  -75.52 input   66.30 | X-H torsion
[ 10763 10752 10751 10750 ] final -111.68 input  -60.55 | X-H torsion
[ 11005 11000 10999 10996 ] final  105.82 input  -57.11 | X-H torsion

> <Gold.Protein.ActiveResidues>
 VAL166  LYS551  ARG553  GLY616  TRP617  ASP618  TYR619  PRO620  LYS621  CYS622 
 ASP623  PHE694  ASN695  SER759  ASP760  ASP761  ALA762  ILE779  LEU786  VAL792 
 PHE793  MET794  SER795  GLU796  ALA797  LYS798  CYS799  TRP800  GLU811  SER814 

> <Gold.Protein.RotatedAtoms>
  152.5428  134.0796  159.8229 H   0  0  0  0  0  0  0  0  0  0  0  0  # atno 6907 bound_to 6896
  151.0900  133.5316  159.2623 H   0  0  0  0  0  0  0  0  0  0  0  0  # atno 6908 bound_to 6896
  151.2111  135.0490  159.8965 H   0  0  0  0  0  0  0  0  0  0  0  0  # atno 6909 bound_to 6896
  145.9964  140.7123  142.9292 H   0  0  0  0  0  0  0  0  0  0  0  0  # atno 7974 bound_to 7965
  156.0275  140.1275  157.0293 H   0  0  0  0  0  0  0  0  0  0  0  0  # atno 8008 bound_to 7997
  154.4336  140.1056  156.6122 H   0  0  0  0  0  0  0  0  0  0  0  0  # atno 8009 bound_to 7997
  155.5855  140.3468  155.4554 H   0  0  0  0  0  0  0  0  0  0  0  0  # atno 8010 bound_to 7997
  139.4988  144.6092  151.6311 H   0  0  0  0  0  0  0  0  0  0  0  0  # atno 10167 bound_to 10162
  156.0205  130.4443  150.3055 H   0  0  0  0  0  0  0  0  0  0  0  0  # atno 10718 bound_to 10713
  154.8312  135.4518  154.1077 H   0  0  0  0  0  0  0  0  0  0  0  0  # atno 10763 bound_to 10752
  153.2348  135.6909  153.7855 H   0  0  0  0  0  0  0  0  0  0  0  0  # atno 10764 bound_to 10752
  153.7225  135.3339  155.3245 H   0  0  0  0  0  0  0  0  0  0  0  0  # atno 10765 bound_to 10752
  139.8806  134.9348  156.5572 H   0  0  0  0  0  0  0  0  0  0  0  0  # atno 11005 bound_to 11000
  144.6905  140.3158  143.7240 LP  0  0  0  0  0  0  0  0  0  0  0  0  # atno 17320 bound_to 7965
  145.7553  139.1807  143.2298 LP  0  0  0  0  0  0  0  0  0  0  0  0  # atno 17321 bound_to 7965
  140.5762  144.0025  150.6243 LP  0  0  0  0  0  0  0  0  0  0  0  0  # atno 17342 bound_to 10162
  140.3159  143.3168  152.0833 LP  0  0  0  0  0  0  0  0  0  0  0  0  # atno 17343 bound_to 10162
  157.1157  131.0233  151.3030 LP  0  0  0  0  0  0  0  0  0  0  0  0  # atno 17370 bound_to 10713
  157.4668  130.7685  149.7287 LP  0  0  0  0  0  0  0  0  0  0  0  0  # atno 17371 bound_to 10713
  140.8196  133.8364  155.8884 LP  0  0  0  0  0  0  0  0  0  0  0  0  # atno 17394 bound_to 11000
  140.9430  134.1876  157.4783 LP  0  0  0  0  0  0  0  0  0  0  0  0  # atno 17395 bound_to 11000

$$$$
