#       Name:                AV-unprocessed.smi:2398
#       Creating user name   scv26
#       Creation time:       Fri Mar 27 13:12:54 2020


#       File generated by GOLD software.
#

@<TRIPOS>MOLECULE
AV-unprocessed.smi:2398
    39    40     1
SMALL
NO_CHARGES


@<TRIPOS>ATOM
      1 ****        -0.4203   1.7044  -0.6601 O.2            1 S1                 0.0000
      2 ****        -0.8689   0.7531  -0.0217 C.2            1 S1                 0.0000
      3 ****        -2.1568   0.5742   0.3204 N.am           1 S1                 0.0000
      4 ****        -3.2915   1.3899   0.0508 C.ar           1 S1                 0.0000
      5 ****        -3.2933   2.5143  -0.8114 C.ar           1 S1                 0.0000
      6 ****        -4.4961   3.2272  -0.9898 C.ar           1 S1                 0.0000
      7 ****        -5.6560   2.8949  -0.3852 N.ar           1 S1                 0.0000
      8 ****        -5.6533   1.8195   0.4299 C.ar           1 S1                 0.0000
      9 ****        -4.5063   1.0389   0.6777 C.ar           1 S1                 0.0000
     10 ****        -4.5752  -0.0306   1.5072 F              1 S1                 0.0000
     11 ****        -0.1074  -0.2535   0.4316 N.am           1 S1                 0.0000
     12 ****         1.3341  -0.3756   0.2349 C.3            1 S1                 0.0000
     13 ****         1.9451  -1.2046   1.3806 C.3            1 S1                 0.0000
     14 ****         3.4560  -1.4078   1.1830 C.3            1 S1                 0.0000
     15 ****         3.7539  -2.0536  -0.1811 C.3            1 S1                 0.0000
     16 ****         5.1506  -2.1601  -0.3579 O.3            1 S1                 0.0000
     17 ****         3.1521  -1.2260  -1.3295 C.3            1 S1                 0.0000
     18 ****         1.6416  -1.0202  -1.1325 C.3            1 S1                 0.0000
     19 ****         1.7832   0.6192   0.2639 H              1 S1                 0.0000
     20 ****         3.3354  -3.0608  -0.2031 H              1 S1                 0.0000
     21 ****        -2.3514  -0.2484   0.8724 H              1 S1                 0.0000
     22 ****        -2.4151   2.8448  -1.3421 H              1 S1                 0.0000
     23 ****        -4.5270   4.0884  -1.6407 H              1 S1                 0.0000
     24 ****        -6.5942   1.5724   0.8989 H              1 S1                 0.0000
     25 ****        -0.5579  -0.9936   0.9499 H              1 S1                 0.0000
     26 ****         1.7642  -0.7118   2.3367 H              1 S1                 0.0000
     27 ****         1.4550  -2.1779   1.4368 H              1 S1                 0.0000
     28 ****         3.9620  -0.4440   1.2564 H              1 S1                 0.0000
     29 ****         3.8529  -2.0285   1.9872 H              1 S1                 0.0000
     30 ****         5.5220  -1.2911  -0.3463 H              1 S1                 0.0000
     31 ****         3.6436  -0.2535  -1.3840 H              1 S1                 0.0000
     32 ****         3.3351  -1.7200  -2.2844 H              1 S1                 0.0000
     33 ****         1.1331  -1.9823  -1.2102 H              1 S1                 0.0000
     34 ****         1.2508  -0.3987  -1.9391 H              1 S1                 0.0000
     35 ****        -1.0328   2.4310  -0.9714 LP             1 S1                 0.0000
     36 ****         0.5568   1.7511  -0.8676 LP             1 S1                 0.0000
     37 ****        -6.4889   3.4274  -0.5361 LP             1 S1                 0.0000
     38 ****         5.3470  -2.5990  -1.2347 LP             1 S1                 0.0000
     39 ****         5.5437  -2.7047   0.3830 LP             1 S1                 0.0000
@<TRIPOS>BOND
    1    1    2 2     
    2    2    3 am    
    3    2   11 am    
    4    3    4 1     
    5    3   21 1     
    6    4    9 ar    
    7    4    5 ar    
    8    5    6 ar    
    9    5   22 1     
   10    6    7 ar    
   11    6   23 1     
   12    7    8 ar    
   13    8    9 ar    
   14    8   24 1     
   15    9   10 1     
   16   11   12 1     
   17   11   25 1     
   18   12   19 1     
   19   12   18 1     
   20   12   13 1     
   21   13   14 1     
   22   13   26 1     
   23   13   27 1     
   24   14   15 1     
   25   14   28 1     
   26   14   29 1     
   27   15   20 1     
   28   15   16 1     
   29   15   17 1     
   30   16   30 1     
   31   17   18 1     
   32   17   31 1     
   33   17   32 1     
   34   18   33 1     
   35   18   34 1     
   36    1   35 1     
   37    1   36 1     
   38    7   37 1     
   39   16   38 1     
   40   16   39 1     
@<TRIPOS>SUBSTRUCTURE
      1 S1             1
@<TRIPOS>SET
LONE_PAIRS      STATIC     ATOMS    <user>   **** ""
5 35 36 37 38 39
DONOR_HYDROGENS      STATIC     ATOMS    <user>   **** ""
3 21 25 30
ATOM$BLUE        STATIC     ATOMS    COLORGROUP SYSTEM
5 35 36 37 38 39
ATOM$RED        STATIC     ATOMS    COLORGROUP SYSTEM
3 21 25 30
