AV-unprocessed.smi:2696|AV-procd|sdf|10413|dock4
  -GOLD-   2272014453D 1   1.00000     0.00000
 Structure written by MMmdl.
 43 44  0  0  0  0  0  0  0  0  1 V2000
  145.7385  137.7755  153.2078 C   0  0  0  0  0  0  0  0  0  0  0  0
  146.2226  139.1129  152.6274 C   0  0  0  0  0  0  0  0  0  0  0  0
  146.6463  138.9741  151.1564 C   0  0  0  0  0  0  0  0  0  0  0  0
  147.3317  139.7212  153.4755 C   0  0  0  0  0  0  0  0  0  0  0  0
  148.5562  139.1523  153.5855 C   0  0  0  0  0  0  0  0  0  0  0  0
  149.6040  139.7784  154.3913 C   0  0  0  0  0  0  0  0  0  0  0  0
  150.7173  139.2734  154.5336 O   0  0  0  0  0  0  0  0  0  0  0  0
  149.2575  140.9686  154.9631 N   0  0  0  0  0  0  0  0  0  0  0  0
  150.2389  141.7519  155.7437 C   0  0  0  0  0  0  0  0  0  0  0  0
  150.0434  141.6892  157.2905 C   0  0  1  0  0  0  0  0  0  0  0  0
  148.7204  142.3799  157.6844 C   0  0  0  0  0  0  0  0  0  0  0  0
  149.7911  140.3345  157.6198 O   0  0  0  0  0  0  0  0  0  0  0  0
  151.2307  142.2746  158.0717 C   0  0  0  0  0  0  0  0  0  0  0  0
  151.5424  143.6534  158.0034 C   0  0  0  0  0  0  0  0  0  0  0  0
  152.6067  144.1845  158.7554 C   0  0  0  0  0  0  0  0  0  0  0  0
  153.3696  143.3462  159.5879 C   0  0  0  0  0  0  0  0  0  0  0  0
  153.0712  141.9714  159.6764 C   0  0  0  0  0  0  0  0  0  0  0  0
  153.9000  141.0804  160.5899 C   0  0  0  0  0  0  0  0  0  0  0  0
  153.4596  139.8216  160.5897 F   0  0  0  0  0  0  0  0  0  0  0  0
  155.1679  141.0881  160.1803 F   0  0  0  0  0  0  0  0  0  0  0  0
  153.8492  141.5410  161.8398 F   0  0  0  0  0  0  0  0  0  0  0  0
  152.0068  141.4436  158.9131 C   0  0  0  0  0  0  0  0  0  0  0  0
  147.9547  141.4974  154.8493 C   0  0  0  0  0  0  0  0  0  0  0  0
  147.0396  140.9152  154.1425 N   0  0  0  0  0  0  0  0  0  0  0  0
  145.4085  137.8941  154.2403 H   0  0  0  0  0  0  0  0  0  0  0  0
  146.5266  137.0220  153.1936 H   0  0  0  0  0  0  0  0  0  0  0  0
  144.8964  137.3835  152.6368 H   0  0  0  0  0  0  0  0  0  0  0  0
  145.3758  139.8009  152.6528 H   0  0  0  0  0  0  0  0  0  0  0  0
  146.9707  139.9329  150.7506 H   0  0  0  0  0  0  0  0  0  0  0  0
  145.8171  138.6211  150.5429 H   0  0  0  0  0  0  0  0  0  0  0  0
  147.4676  138.2668  151.0381 H   0  0  0  0  0  0  0  0  0  0  0  0
  148.7741  138.2300  153.0673 H   0  0  0  0  0  0  0  0  0  0  0  0
  151.2400  141.3807  155.5155 H   0  0  0  0  0  0  0  0  0  0  0  0
  150.2676  142.7869  155.3967 H   0  0  0  0  0  0  0  0  0  0  0  0
  148.7134  143.4384  157.4259 H   0  0  0  0  0  0  0  0  0  0  0  0
  148.5376  142.3043  158.7574 H   0  0  0  0  0  0  0  0  0  0  0  0
  147.8685  141.9284  157.1737 H   0  0  0  0  0  0  0  0  0  0  0  0
  150.2892  139.7836  157.0355 H   0  0  0  0  0  0  0  0  0  0  0  0
  150.9631  144.3237  157.3861 H   0  0  0  0  0  0  0  0  0  0  0  0
  152.8340  145.2386  158.6974 H   0  0  0  0  0  0  0  0  0  0  0  0
  154.1831  143.7616  160.1645 H   0  0  0  0  0  0  0  0  0  0  0  0
  151.7687  140.3940  158.9914 H   0  0  0  0  0  0  0  0  0  0  0  0
  147.7766  142.4320  155.3837 H   0  0  0  0  0  0  0  0  0  0  0  0
  1  2  1  0  0  0  0
  1 25  1  0  0  0  0
  1 26  1  0  0  0  0
  1 27  1  0  0  0  0
  2  3  1  0  0  0  0
  2  4  1  0  0  0  0
  2 28  1  0  0  0  0
  3 29  1  0  0  0  0
  3 30  1  0  0  0  0
  3 31  1  0  0  0  0
  4 24  1  0  0  0  0
  4  5  2  0  0  0  0
  5  6  1  0  0  0  0
  5 32  1  0  0  0  0
  6  7  2  0  0  0  0
  6  8  1  0  0  0  0
  8  9  1  0  0  0  0
  8 23  1  0  0  0  0
  9 10  1  0  0  0  0
  9 33  1  0  0  0  0
  9 34  1  0  0  0  0
 10 11  1  0  0  0  0
 10 12  1  0  0  0  0
 10 13  1  0  0  0  0
 11 35  1  0  0  0  0
 11 36  1  0  0  0  0
 11 37  1  0  0  0  0
 12 38  1  0  0  0  0
 13 22  1  0  0  0  0
 13 14  2  0  0  0  0
 14 15  1  0  0  0  0
 14 39  1  0  0  0  0
 15 16  2  0  0  0  0
 15 40  1  0  0  0  0
 16 17  1  0  0  0  0
 16 41  1  0  0  0  0
 17 18  1  0  0  0  0
 17 22  2  0  0  0  0
 18 19  1  0  0  0  0
 18 20  1  0  0  0  0
 18 21  1  0  0  0  0
 22 42  1  0  0  0  0
 23 24  2  0  0  0  0
 23 43  1  0  0  0  0
M  END
> <s_m_source_file>
AV-unprocessed.smi

> <i_m_source_file_index>
2696

> <i_lp_mmshare_version>
43012

> <i_f3d_flags>
0

> <s_epik_input>
W0NIM11bQ0hdKFtDSDNdKWMxW2NIXWMoPU8pbihbY0hdbjEpW0NIMl1bQ0BAXShbQ0gzXSkoW09IXSljMltjSF1bY0hdW2NIXWMoQyhGKShGKUYpW2NIXTI=

> <s_epik_cmdline>
J2VwaWtfcHl0aG9uJywgJy1waCcsICc3LjAnLCAnLXRuJywgJzgnLCAnLW1hJywgJzIwMCcsICctbWV0YWxfYmluZGluZycsICctaW1hZScsICc8aW5maWxlLm1hZT4nLCAnLW9tYWUnLCAnPG91dGZpbGUubWFlPic=

> <r_lp_tautomer_probability>
1

> <r_epik_Ionization_Penalty>
2.71388e-05

> <r_epik_Ionization_Penalty_Charging>
4.19927e-06

> <r_epik_Ionization_Penalty_Neutral>
2.29395e-05

> <r_epik_State_Penalty>
-0

> <r_epik_Charging_Adjusted_Penalty>
4.19927e-06

> <i_epik_Tot_Q>
0

> <i_epik_Tot_abs_Q>
0

> <r_epik_Metal_State_Penalty>
-0

> <b_epik_Metal_Only>
0

> <s_lp_Force_Field>
OPLS_2005

> <r_lp_Energy>
19.4026

> <b_lp_Chiralities_Consistent>
1

> <s_lp_Variant>
AV-unprocessed.smi:2696-1

> <Gold.Version>
5.8.1

> <Gold.Id.Protein>
6NUR|6NUR_protein|mol2

> <Gold.PLP.Fitness>
51.7879

> <Gold.PLP.PLP>
-47.4306

> <Gold.PLP.part.hbond>
-1.0000

> <Gold.PLP.part.metal>
0.0000

> <Gold.PLP.part.buried>
6.0145

> <Gold.PLP.part.nonpolar>
-51.8276

> <Gold.PLP.part.repulsive>
0.2717

> <Gold.PLP.ligand.clash>
0.0670

> <Gold.PLP.ligand.torsion>
0.4274

> <Gold.PLP.Chemscore.Hbond>
0.7000

> <Gold.PLP.Chemscore.CHOScore>
0.9383

> <Gold.PLP.Chemscore.Metal>
0.0000

> <Gold.Chemscore.Hbonds>
donor molecule, donor type, donor heavy atom, donor atom, acceptor molecule, acceptor atom, score
      P1  H  7989  7998       L1     7  0.49
      L1  C    23    43       P1  8028  0.99

> <Gold.PLP.Chemscore.Internal.Correction>
0.3639

> <Gold.Rescore>
     Score         DG    S(hbond)    S(metal)    S(lipo)     H(rot)  DE(clash)    DE(int)     intcor
     13.26     -14.06       0.00        0.00     122.19       2.23       0.22       0.59       ----

> <Gold.Chemscore.Fitness>
13.2556

> <Gold.Chemscore.DG>
-14.0643

> <Gold.Chemscore.ZeroCoef>
-5.4800

> <Gold.Chemscore.Hbond>
0.0000

> <Gold.Chemscore.Metal>
0.0000

> <Gold.Chemscore.Lipo>
122.1885

> <Gold.Chemscore.Internal_Hbond>
0.0000

> <Gold.Chemscore.DEClash>
0.2223

> <Gold.Chemscore.DEInternal>
0.5864

> <Gold.Chemscore.Rot>
2.2312

> <Gold.Chemscore.Internal.Correction>
   9.000000E+99

> <Gold.Chemscore.Hbonds>
donor molecule, donor type, donor heavy atom, donor atom, acceptor molecule, acceptor atom, score
      P1  H  7989  7998       L1     7  0.03

> <Gold.Chemscore.Hbond.Weighted>
-0.0001

> <Gold.Chemscore.Metal.Weighted>
-0.0000

> <Gold.Chemscore.Lipo.Weighted>
-14.2961

> <Gold.Chemscore.Internal_Hbond.Weighted>
0.0000

> <Gold.Chemscore.DEClash.Weighted>
0.2223

> <Gold.Chemscore.DEInternal.Weighted>
0.5864

> <Gold.Chemscore.Rot.Weighted>
5.7118

> <Gold.Chemscore.Internal.Correction.Weighted>
   9.000000E+99

> <Gold.Protein.RotatedTorsions>
[ 6907 6896 6895 6894 ] final   89.79 input  -60.11 | X-H torsion
[ 7974 7965 7964 7962 ] final   19.73 input  175.53 | X-H torsion
[ 8008 7997 7996 7995 ] final  -34.35 input   59.86 | X-H torsion
[ 10167 10162 10161 10158 ] final  -12.36 input  -65.29 | X-H torsion
[ 10718 10713 10712 10709 ] final   18.55 input   66.30 | X-H torsion
[ 10763 10752 10751 10750 ] final  -35.87 input  -60.55 | X-H torsion
[ 11005 11000 10999 10996 ] final  -38.53 input  -57.11 | X-H torsion

> <Gold.Protein.ActiveResidues>
 VAL166  LYS551  ARG553  GLY616  TRP617  ASP618  TYR619  PRO620  LYS621  CYS622 
 ASP623  PHE694  ASN695  SER759  ASP760  ASP761  ALA762  ILE779  LEU786  VAL792 
 PHE793  MET794  SER795  GLU796  ALA797  LYS798  CYS799  TRP800  GLU811  SER814 

> <Gold.Protein.RotatedAtoms>
  152.5439  134.1912  159.8674 H   0  0  0  0  0  0  0  0  0  0  0  0  # atno 6907 bound_to 6896
  151.1908  133.4662  159.2602 H   0  0  0  0  0  0  0  0  0  0  0  0  # atno 6908 bound_to 6896
  151.1085  135.0025  159.8538 H   0  0  0  0  0  0  0  0  0  0  0  0  # atno 6909 bound_to 6896
  146.2138  139.8270  142.8668 H   0  0  0  0  0  0  0  0  0  0  0  0  # atno 7974 bound_to 7965
  154.4123  140.1686  156.2035 H   0  0  0  0  0  0  0  0  0  0  0  0  # atno 8008 bound_to 7997
  155.9504  140.3401  155.6379 H   0  0  0  0  0  0  0  0  0  0  0  0  # atno 8009 bound_to 7997
  155.6877  140.0730  157.2451 H   0  0  0  0  0  0  0  0  0  0  0  0  # atno 8010 bound_to 7997
  140.7159  143.5540  150.9269 H   0  0  0  0  0  0  0  0  0  0  0  0  # atno 10167 bound_to 10162
  157.0980  130.6456  149.5865 H   0  0  0  0  0  0  0  0  0  0  0  0  # atno 10718 bound_to 10713
  153.8703  135.6831  153.4775 H   0  0  0  0  0  0  0  0  0  0  0  0  # atno 10763 bound_to 10752
  153.1291  135.4706  154.9318 H   0  0  0  0  0  0  0  0  0  0  0  0  # atno 10764 bound_to 10752
  154.7717  135.3241  154.8126 H   0  0  0  0  0  0  0  0  0  0  0  0  # atno 10765 bound_to 10752
  141.0034  133.6944  156.2065 H   0  0  0  0  0  0  0  0  0  0  0  0  # atno 11005 bound_to 11000
  145.3036  141.0201  143.3594 LP  0  0  0  0  0  0  0  0  0  0  0  0  # atno 17320 bound_to 7965
  144.8987  139.4677  143.6643 LP  0  0  0  0  0  0  0  0  0  0  0  0  # atno 17321 bound_to 7965
  139.9265  143.6544  152.3085 LP  0  0  0  0  0  0  0  0  0  0  0  0  # atno 17342 bound_to 10162
  139.6979  144.7639  151.1324 LP  0  0  0  0  0  0  0  0  0  0  0  0  # atno 17343 bound_to 10162
  155.9881  130.4923  150.7154 LP  0  0  0  0  0  0  0  0  0  0  0  0  # atno 17370 bound_to 10713
  157.4665  131.0889  151.0689 LP  0  0  0  0  0  0  0  0  0  0  0  0  # atno 17371 bound_to 10713
  140.6852  134.4725  157.5589 LP  0  0  0  0  0  0  0  0  0  0  0  0  # atno 17394 bound_to 11000
  139.9051  134.8468  156.1740 LP  0  0  0  0  0  0  0  0  0  0  0  0  # atno 17395 bound_to 11000

$$$$
