AV-unprocessed.smi:798|AV-procd|sdf|3780|dock4
  -GOLD-   22720 1213D 1   1.00000     0.00000
 Structure written by MMmdl.
 33 35  0  0  0  0  0  0  0  0  2 V2000
  148.9534  138.4185  159.1290 O   0  0  0  0  0  0  0  0  0  0  0  0
  149.3566  137.3295  158.7141 C   0  0  0  0  0  0  0  0  0  0  0  0
  149.4727  136.1909  159.4343 N   0  5  0  0  0  0  0  0  0  0  0  0
  148.6764  135.9832  160.4958 C   0  0  0  0  0  0  0  0  0  0  0  0
  148.3075  136.9756  161.3218 N   0  0  0  0  0  0  0  0  0  0  0  0
  147.4892  136.5472  162.3584 N   0  0  0  0  0  0  0  0  0  0  0  0
  147.2674  135.2345  162.2917 C   0  0  0  0  0  0  0  0  0  0  0  0
  148.0393  134.4023  160.9584 S   0  0  0  0  0  0  0  0  0  0  0  0
  149.7198  137.1935  157.4309 N   0  0  0  0  0  0  0  0  0  0  0  0
  149.7019  138.2427  156.4088 C   0  0  1  0  0  0  0  0  0  0  0  0
  150.6215  139.4348  156.7725 C   0  0  1  0  0  0  0  0  0  0  0  0
  152.0376  138.9569  157.1589 C   0  0  0  0  0  0  0  0  0  0  0  0
  152.6067  138.4730  155.8133 C   0  0  0  0  0  0  0  0  0  0  0  0
  151.4569  138.7656  154.8263 C   0  0  2  0  0  0  0  0  0  0  0  0
  150.8911  140.0567  155.4059 C   0  0  0  0  0  0  0  0  0  0  0  0
  150.2599  137.8030  155.0233 C   0  0  1  0  0  0  0  0  0  0  0  0
  150.5605  136.3007  154.8193 C   0  0  0  0  0  0  0  0  0  0  0  0
  149.3622  135.5819  154.6147 O   0  0  0  0  0  0  0  0  0  0  0  0
  146.6486  134.7528  163.0338 H   0  0  0  0  0  0  0  0  0  0  0  0
  150.0392  136.2822  157.1376 H   0  0  0  0  0  0  0  0  0  0  0  0
  148.6841  138.6179  156.2845 H   0  0  0  0  0  0  0  0  0  0  0  0
  150.1810  140.1139  157.5031 H   0  0  0  0  0  0  0  0  0  0  0  0
  152.6289  139.7906  157.5395 H   0  0  0  0  0  0  0  0  0  0  0  0
  152.0480  138.1806  157.9239 H   0  0  0  0  0  0  0  0  0  0  0  0
  153.4923  139.0527  155.5497 H   0  0  0  0  0  0  0  0  0  0  0  0
  152.9023  137.4250  155.8342 H   0  0  0  0  0  0  0  0  0  0  0  0
  151.7845  138.8431  153.7892 H   0  0  0  0  0  0  0  0  0  0  0  0
  149.9871  140.4018  154.9009 H   0  0  0  0  0  0  0  0  0  0  0  0
  151.6151  140.8733  155.4353 H   0  0  0  0  0  0  0  0  0  0  0  0
  149.5064  138.0690  154.2794 H   0  0  0  0  0  0  0  0  0  0  0  0
  151.2343  136.1242  153.9816 H   0  0  0  0  0  0  0  0  0  0  0  0
  151.0475  135.8930  155.7055 H   0  0  0  0  0  0  0  0  0  0  0  0
  149.0498  135.7656  153.7419 H   0  0  0  0  0  0  0  0  0  0  0  0
  1  2  2  0  0  0  0
  2  3  1  0  0  0  0
  2  9  1  0  0  0  0
  3  4  1  0  0  0  0
  4  8  1  0  0  0  0
  4  5  2  0  0  0  0
  5  6  1  0  0  0  0
  6  7  2  0  0  0  0
  7  8  1  0  0  0  0
  7 19  1  0  0  0  0
  9 10  1  0  0  0  0
  9 20  1  0  0  0  0
 10 16  1  0  0  0  0
 10 11  1  0  0  0  0
 10 21  1  0  0  0  0
 11 15  1  0  0  0  0
 11 12  1  0  0  0  0
 11 22  1  0  0  0  0
 12 13  1  0  0  0  0
 12 23  1  0  0  0  0
 12 24  1  0  0  0  0
 13 14  1  0  0  0  0
 13 25  1  0  0  0  0
 13 26  1  0  0  0  0
 14 15  1  0  0  0  0
 14 16  1  0  0  0  0
 14 27  1  0  0  0  0
 15 28  1  0  0  0  0
 15 29  1  0  0  0  0
 16 17  1  0  0  0  0
 16 30  1  0  0  0  0
 17 18  1  0  0  0  0
 17 31  1  0  0  0  0
 17 32  1  0  0  0  0
 18 33  1  0  0  0  0
M  CHG  1   3  -1
M  END
> <s_m_source_file>
AV-unprocessed.smi

> <i_m_source_file_index>
798

> <i_lp_mmshare_version>
43012

> <i_f3d_flags>
0

> <s_epik_input>
W0NIMl0xW0NIMl1bQ0BASF0oW0NIMl0yKVtDQEBIXShbQ0gyXVtPSF0pW0NAQEhdKFtDQEhdMTIpW05IXUMoPU8pW05IXWMzbm5bY0hdczM=

> <s_epik_cmdline>
J2VwaWtfcHl0aG9uJywgJy1waCcsICc3LjAnLCAnLXRuJywgJzgnLCAnLW1hJywgJzIwMCcsICctbWV0YWxfYmluZGluZycsICctaW1hZScsICc8aW5maWxlLm1hZT4nLCAnLW9tYWUnLCAnPG91dGZpbGUubWFlPic=

> <r_lp_tautomer_probability>
1

> <r_epik_Ionization_Penalty>
4.53732

> <r_epik_Ionization_Penalty_Charging>
4.48632

> <r_epik_Ionization_Penalty_Neutral>
0.0510007

> <r_epik_State_Penalty>
4.48602

> <r_epik_Charging_Adjusted_Penalty>
8.97234

> <i_epik_Tot_Q>
-1

> <i_epik_Tot_abs_Q>
1

> <r_epik_Metal_State_Penalty>
0.812492

> <b_epik_Metal_Only>
1

> <s_lp_Force_Field>
OPLS_2005

> <r_lp_Energy>
48.4262

> <b_lp_Chiralities_Consistent>
1

> <s_lp_Variant>
AV-unprocessed.smi:798-12

> <Gold.Version>
5.8.1

> <Gold.Id.Protein>
6NUR|6NUR_protein|mol2

> <Gold.PLP.Fitness>
38.9372

> <Gold.PLP.PLP>
-27.0714

> <Gold.PLP.part.hbond>
-5.3921

> <Gold.PLP.part.metal>
0.0000

> <Gold.PLP.part.buried>
-3.3001

> <Gold.PLP.part.nonpolar>
-19.4934

> <Gold.PLP.part.repulsive>
0.0286

> <Gold.PLP.ligand.clash>
0.0000

> <Gold.PLP.ligand.torsion>
0.5736

> <Gold.PLP.Chemscore.Hbond>
4.3295

> <Gold.PLP.Chemscore.CHOScore>
0.0000

> <Gold.PLP.Chemscore.Metal>
0.0000

> <Gold.Chemscore.Hbonds>
donor molecule, donor type, donor heavy atom, donor atom, acceptor molecule, acceptor atom, score
      L1  H    18    33       P1  7948  1.00
      P1  H  6896  6907       L1     3  2.00
      P1  H  6931  6943       L1     5  1.00
      P1  H  6934  6947       L1     5  0.09

> <Gold.PLP.Chemscore.Internal.Correction>
0.0246

> <Gold.Rescore>
     Score         DG    S(hbond)    S(metal)    S(lipo)     H(rot)  DE(clash)    DE(int)     intcor
     13.20     -15.32       2.45        0.00      56.06       1.92       0.03       2.08       ----

> <Gold.Chemscore.Fitness>
13.2030

> <Gold.Chemscore.DG>
-15.3153

> <Gold.Chemscore.ZeroCoef>
-5.4800

> <Gold.Chemscore.Hbond>
2.4531

> <Gold.Chemscore.Metal>
0.0000

> <Gold.Chemscore.Lipo>
56.0583

> <Gold.Chemscore.Internal_Hbond>
0.0000

> <Gold.Chemscore.DEClash>
0.0327

> <Gold.Chemscore.DEInternal>
2.0796

> <Gold.Chemscore.Rot>
1.9207

> <Gold.Chemscore.Internal.Correction>
   9.000000E+99

> <Gold.Chemscore.Hbonds>
donor molecule, donor type, donor heavy atom, donor atom, acceptor molecule, acceptor atom, score
      L1  H    18    33       P1  7948  0.88
      P1  H  6896  6907       L1     3  0.30
      P1  H  6931  6943       L1     5  0.43
      P1  H  6934  6947       L1     5  0.02

> <Gold.Chemscore.Hbond.Weighted>
-8.1934

> <Gold.Chemscore.Metal.Weighted>
-0.0000

> <Gold.Chemscore.Lipo.Weighted>
-6.5588

> <Gold.Chemscore.Internal_Hbond.Weighted>
0.0000

> <Gold.Chemscore.DEClash.Weighted>
0.0327

> <Gold.Chemscore.DEInternal.Weighted>
2.0796

> <Gold.Chemscore.Rot.Weighted>
4.9169

> <Gold.Chemscore.Internal.Correction.Weighted>
   9.000000E+99

> <Gold.Protein.RotatedTorsions>
[ 6907 6896 6895 6894 ] final  -53.08 input  -60.11 | X-H torsion
[ 7974 7965 7964 7962 ] final   57.02 input  175.53 | X-H torsion
[ 8008 7997 7996 7995 ] final  -90.01 input   59.86 | X-H torsion
[ 10167 10162 10161 10158 ] final   67.58 input  -65.29 | X-H torsion
[ 10718 10713 10712 10709 ] final   92.73 input   66.30 | X-H torsion
[ 10763 10752 10751 10750 ] final  129.42 input  -60.55 | X-H torsion
[ 11005 11000 10999 10996 ] final    4.95 input  -57.11 | X-H torsion

> <Gold.Protein.ActiveResidues>
 VAL166  LYS551  ARG553  GLY616  TRP617  ASP618  TYR619  PRO620  LYS621  CYS622 
 ASP623  PHE694  ASN695  SER759  ASP760  ASP761  ALA762  ILE779  LEU786  VAL792 
 PHE793  MET794  SER795  GLU796  ALA797  LYS798  CYS799  TRP800  GLU811  SER814 

> <Gold.Protein.RotatedAtoms>
  150.8459  134.7768  159.6969 H   0  0  0  0  0  0  0  0  0  0  0  0  # atno 6907 bound_to 6896
  152.4536  134.5337  159.9828 H   0  0  0  0  0  0  0  0  0  0  0  0  # atno 6908 bound_to 6896
  151.5468  133.3386  159.2981 H   0  0  0  0  0  0  0  0  0  0  0  0  # atno 6909 bound_to 6896
  145.9335  139.3827  143.0407 H   0  0  0  0  0  0  0  0  0  0  0  0  # atno 7974 bound_to 7965
  154.6934  140.0535  157.0386 H   0  0  0  0  0  0  0  0  0  0  0  0  # atno 8008 bound_to 7997
  155.0785  140.3207  155.4590 H   0  0  0  0  0  0  0  0  0  0  0  0  # atno 8009 bound_to 7997
  156.2736  140.2069  156.5913 H   0  0  0  0  0  0  0  0  0  0  0  0  # atno 8010 bound_to 7997
  140.0880  144.5013  150.7118 H   0  0  0  0  0  0  0  0  0  0  0  0  # atno 10167 bound_to 10162
  157.6957  131.0453  150.3926 H   0  0  0  0  0  0  0  0  0  0  0  0  # atno 10718 bound_to 10713
  153.7415  135.3223  155.3305 H   0  0  0  0  0  0  0  0  0  0  0  0  # atno 10763 bound_to 10752
  154.8293  135.4546  154.1022 H   0  0  0  0  0  0  0  0  0  0  0  0  # atno 10764 bound_to 10752
  153.2198  135.6946  153.8095 H   0  0  0  0  0  0  0  0  0  0  0  0  # atno 10765 bound_to 10752
  140.5762  134.0056  155.8029 H   0  0  0  0  0  0  0  0  0  0  0  0  # atno 11005 bound_to 11000
  145.8395  140.9588  143.0807 LP  0  0  0  0  0  0  0  0  0  0  0  0  # atno 17320 bound_to 7965
  144.6768  140.0265  143.7483 LP  0  0  0  0  0  0  0  0  0  0  0  0  # atno 17321 bound_to 7965
  140.7043  143.2457  151.4771 LP  0  0  0  0  0  0  0  0  0  0  0  0  # atno 17342 bound_to 10162
  139.5741  144.1859  152.1878 LP  0  0  0  0  0  0  0  0  0  0  0  0  # atno 17343 bound_to 10162
  156.4328  130.3975  149.6749 LP  0  0  0  0  0  0  0  0  0  0  0  0  # atno 17370 bound_to 10713
  156.3960  130.7651  151.2655 LP  0  0  0  0  0  0  0  0  0  0  0  0  # atno 17371 bound_to 10713
  141.1025  133.9746  157.3054 LP  0  0  0  0  0  0  0  0  0  0  0  0  # atno 17394 bound_to 11000
  139.9338  135.0198  156.8490 LP  0  0  0  0  0  0  0  0  0  0  0  0  # atno 17395 bound_to 11000

$$$$
