AV-unprocessed.smi:2803|AV-procd|sdf|10807|dock3
  -GOLD-   2272015243D 1   1.00000     0.00000
 Structure written by MMmdl.
 42 43  0  0  0  0  0  0  0  0  1 V2000
  152.4023  138.8676  158.5669 C   0  0  0  0  0  0  0  0  0  0  0  0
  151.8742  138.2456  157.2593 C   0  0  1  0  0  0  0  0  0  0  0  0
  152.5958  136.9907  156.9765 C   0  0  0  0  0  0  0  0  0  0  0  0
  153.1627  136.0062  156.7559 N   0  0  0  0  0  0  0  0  0  0  0  0
  150.4384  137.9875  157.3872 N   0  0  0  0  0  0  0  0  0  0  0  0
  149.8130  137.1146  158.1968 C   0  0  0  0  0  0  0  0  0  0  0  0
  150.4089  136.3951  158.9962 O   0  0  0  0  0  0  0  0  0  0  0  0
  148.2808  137.0131  158.0951 C   0  0  0  0  0  0  0  0  0  0  0  0
  147.6665  136.0500  159.0164 N   0  0  0  0  0  0  0  0  0  0  0  0
  147.1719  134.8344  158.6100 C   0  0  0  0  0  0  0  0  0  0  0  0
  146.6331  134.1885  159.5844 N   0  0  0  0  0  0  0  0  0  0  0  0
  146.7928  135.0237  160.6537 N   0  0  0  0  0  0  0  0  0  0  0  0
  146.2692  134.6340  161.9881 C   0  0  0  0  0  0  0  0  0  0  0  0
  145.1622  135.6201  162.4195 C   0  0  0  0  0  0  0  0  0  0  0  0
  147.3743  134.6571  163.0733 C   0  0  0  0  0  0  0  0  0  0  0  0
  145.6990  133.2003  161.9248 C   0  0  0  0  0  0  0  0  0  0  0  0
  147.4272  136.1643  160.3199 C   0  0  0  0  0  0  0  0  0  0  0  0
  147.7069  137.1221  161.0399 O   0  0  0  0  0  0  0  0  0  0  0  0
  152.1842  139.1949  156.1048 C   0  0  0  0  0  0  0  0  0  0  0  0
  151.2699  140.3401  155.7288 C   0  0  0  0  0  0  0  0  0  0  0  0
  151.4168  139.1545  154.8008 C   0  0  0  0  0  0  0  0  0  0  0  0
  153.4648  139.1010  158.4895 H   0  0  0  0  0  0  0  0  0  0  0  0
  152.2850  138.1947  159.4165 H   0  0  0  0  0  0  0  0  0  0  0  0
  151.8784  139.7943  158.8037 H   0  0  0  0  0  0  0  0  0  0  0  0
  149.8486  138.5305  156.7738 H   0  0  0  0  0  0  0  0  0  0  0  0
  147.8550  138.0055  158.2531 H   0  0  0  0  0  0  0  0  0  0  0  0
  148.0244  136.7351  157.0719 H   0  0  0  0  0  0  0  0  0  0  0  0
  147.2620  134.5345  157.5647 H   0  0  0  0  0  0  0  0  0  0  0  0
  144.7959  135.3889  163.4203 H   0  0  0  0  0  0  0  0  0  0  0  0
  144.3003  135.5916  161.7530 H   0  0  0  0  0  0  0  0  0  0  0  0
  145.5327  136.6458  162.4358 H   0  0  0  0  0  0  0  0  0  0  0  0
  147.8095  135.6509  163.1863 H   0  0  0  0  0  0  0  0  0  0  0  0
  148.1820  133.9607  162.8434 H   0  0  0  0  0  0  0  0  0  0  0  0
  146.9760  134.3713  164.0474 H   0  0  0  0  0  0  0  0  0  0  0  0
  145.3467  132.8732  162.9038 H   0  0  0  0  0  0  0  0  0  0  0  0
  146.4574  132.4888  161.5963 H   0  0  0  0  0  0  0  0  0  0  0  0
  144.8534  133.1204  161.2420 H   0  0  0  0  0  0  0  0  0  0  0  0
  153.2484  139.4015  156.0021 H   0  0  0  0  0  0  0  0  0  0  0  0
  150.3296  140.4460  156.2658 H   0  0  0  0  0  0  0  0  0  0  0  0
  151.7371  141.2748  155.4260 H   0  0  0  0  0  0  0  0  0  0  0  0
  151.9820  139.3031  153.8831 H   0  0  0  0  0  0  0  0  0  0  0  0
  150.5695  138.4766  154.7178 H   0  0  0  0  0  0  0  0  0  0  0  0
  1  2  1  0  0  0  0
  1 22  1  0  0  0  0
  1 23  1  0  0  0  0
  1 24  1  0  0  0  0
  2  3  1  0  0  0  0
  2  5  1  0  0  0  0
  2 19  1  0  0  0  0
  3  4  3  0  0  0  0
  5  6  1  0  0  0  0
  5 25  1  0  0  0  0
  6  7  2  0  0  0  0
  6  8  1  0  0  0  0
  8  9  1  0  0  0  0
  8 26  1  0  0  0  0
  8 27  1  0  0  0  0
  9 17  1  0  0  0  0
  9 10  1  0  0  0  0
 10 11  2  0  0  0  0
 10 28  1  0  0  0  0
 11 12  1  0  0  0  0
 12 13  1  0  0  0  0
 12 17  1  0  0  0  0
 13 14  1  0  0  0  0
 13 15  1  0  0  0  0
 13 16  1  0  0  0  0
 14 29  1  0  0  0  0
 14 30  1  0  0  0  0
 14 31  1  0  0  0  0
 15 32  1  0  0  0  0
 15 33  1  0  0  0  0
 15 34  1  0  0  0  0
 16 35  1  0  0  0  0
 16 36  1  0  0  0  0
 16 37  1  0  0  0  0
 17 18  2  0  0  0  0
 19 21  1  0  0  0  0
 19 20  1  0  0  0  0
 19 38  1  0  0  0  0
 20 21  1  0  0  0  0
 20 39  1  0  0  0  0
 20 40  1  0  0  0  0
 21 41  1  0  0  0  0
 21 42  1  0  0  0  0
M  END
> <s_m_source_file>
AV-unprocessed.smi

> <i_m_source_file_index>
2803

> <i_lp_mmshare_version>
43012

> <i_f3d_flags>
0

> <s_epik_input>
W0NIMl0xW0NIMl1bQ0hdMVtDQF0oW0NIM10pKEMjTilbTkhdQyg9TylbQ0gyXW4yW2NIXW5uKGMyPU8pQyhbQ0gzXSkoW0NIM10pW0NIM10=

> <s_epik_cmdline>
J2VwaWtfcHl0aG9uJywgJy1waCcsICc3LjAnLCAnLXRuJywgJzgnLCAnLW1hJywgJzIwMCcsICctbWV0YWxfYmluZGluZycsICctaW1hZScsICc8aW5maWxlLm1hZT4nLCAnLW9tYWUnLCAnPG91dGZpbGUubWFlPic=

> <r_lp_tautomer_probability>
1

> <r_epik_Ionization_Penalty>
4.88615e-06

> <r_epik_Ionization_Penalty_Charging>
4.80261e-08

> <r_epik_Ionization_Penalty_Neutral>
4.83813e-06

> <r_epik_State_Penalty>
-0

> <r_epik_Charging_Adjusted_Penalty>
4.80261e-08

> <i_epik_Tot_Q>
0

> <i_epik_Tot_abs_Q>
0

> <r_epik_Metal_State_Penalty>
-0

> <b_epik_Metal_Only>
0

> <s_lp_Force_Field>
OPLS_2005

> <r_lp_Energy>
32.3619

> <b_lp_Chiralities_Consistent>
1

> <s_lp_Variant>
AV-unprocessed.smi:2803-1

> <Gold.Version>
5.8.1

> <Gold.Id.Protein>
6NUR|6NUR_protein|mol2

> <Gold.PLP.Fitness>
42.9050

> <Gold.PLP.PLP>
-32.0126

> <Gold.PLP.part.hbond>
-4.0000

> <Gold.PLP.part.metal>
0.0000

> <Gold.PLP.part.buried>
-2.6659

> <Gold.PLP.part.nonpolar>
-25.3559

> <Gold.PLP.part.repulsive>
0.0172

> <Gold.PLP.ligand.clash>
0.0000

> <Gold.PLP.ligand.torsion>
1.0650

> <Gold.PLP.Chemscore.Hbond>
3.8240

> <Gold.PLP.Chemscore.CHOScore>
0.0000

> <Gold.PLP.Chemscore.Metal>
0.0000

> <Gold.Chemscore.Hbonds>
donor molecule, donor type, donor heavy atom, donor atom, acceptor molecule, acceptor atom, score
      P1  H  6896  6909       L1     7  1.00
      P1  H  6931  6943       L1    18  0.94
      P1  H  6934  6947       L1    18  0.90
      P1  H 10752 10765       L1     4  1.00

> <Gold.PLP.Chemscore.Internal.Correction>
1.5504

> <Gold.Rescore>
     Score         DG    S(hbond)    S(metal)    S(lipo)     H(rot)  DE(clash)    DE(int)     intcor
     19.43     -20.41       3.77        0.00      64.74       2.05       0.00       0.98       ----

> <Gold.Chemscore.Fitness>
19.4314

> <Gold.Chemscore.DG>
-20.4134

> <Gold.Chemscore.ZeroCoef>
-5.4800

> <Gold.Chemscore.Hbond>
3.7710

> <Gold.Chemscore.Metal>
0.0000

> <Gold.Chemscore.Lipo>
64.7448

> <Gold.Chemscore.Internal_Hbond>
0.0000

> <Gold.Chemscore.DEClash>
0.0000

> <Gold.Chemscore.DEInternal>
0.9819

> <Gold.Chemscore.Rot>
2.0457

> <Gold.Chemscore.Internal.Correction>
   9.000000E+99

> <Gold.Chemscore.Hbonds>
donor molecule, donor type, donor heavy atom, donor atom, acceptor molecule, acceptor atom, score
      P1  H  6896  6909       L1     7  0.99
      P1  H  6931  6943       L1    18  0.90
      P1  H  6934  6947       L1    18  0.85
      P1  H 10752 10765       L1     4  0.98

> <Gold.Chemscore.Hbond.Weighted>
-12.5952

> <Gold.Chemscore.Metal.Weighted>
-0.0000

> <Gold.Chemscore.Lipo.Weighted>
-7.5751

> <Gold.Chemscore.Internal_Hbond.Weighted>
0.0000

> <Gold.Chemscore.DEClash.Weighted>
0.0000

> <Gold.Chemscore.DEInternal.Weighted>
0.9819

> <Gold.Chemscore.Rot.Weighted>
5.2370

> <Gold.Chemscore.Internal.Correction.Weighted>
   9.000000E+99

> <Gold.Protein.RotatedTorsions>
[ 6907 6896 6895 6894 ] final   79.49 input  -60.11 | X-H torsion
[ 7974 7965 7964 7962 ] final   54.39 input  175.53 | X-H torsion
[ 8008 7997 7996 7995 ] final -117.58 input   59.86 | X-H torsion
[ 10167 10162 10161 10158 ] final  -95.63 input  -65.29 | X-H torsion
[ 10718 10713 10712 10709 ] final  -80.52 input   66.30 | X-H torsion
[ 10763 10752 10751 10750 ] final -125.79 input  -60.55 | X-H torsion
[ 11005 11000 10999 10996 ] final   38.12 input  -57.11 | X-H torsion

> <Gold.Protein.ActiveResidues>
 VAL166  LYS551  ARG553  GLY616  TRP617  ASP618  TYR619  PRO620  LYS621  CYS622 
 ASP623  PHE694  ASN695  SER759  ASP760  ASP761  ALA762  ILE779  LEU786  VAL792 
 PHE793  MET794  SER795  GLU796  ALA797  LYS798  CYS799  TRP800  GLU811  SER814 

> <Gold.Protein.RotatedAtoms>
  152.5200  134.3503  159.9248 H   0  0  0  0  0  0  0  0  0  0  0  0  # atno 6907 bound_to 6896
  151.3454  133.3940  159.2683 H   0  0  0  0  0  0  0  0  0  0  0  0  # atno 6908 bound_to 6896
  150.9770  134.9151  159.7880 H   0  0  0  0  0  0  0  0  0  0  0  0  # atno 6909 bound_to 6896
  145.9614  139.4062  143.0246 H   0  0  0  0  0  0  0  0  0  0  0  0  # atno 7974 bound_to 7965
  155.0859  140.0394  157.2654 H   0  0  0  0  0  0  0  0  0  0  0  0  # atno 8008 bound_to 7997
  154.6870  140.2645  155.6826 H   0  0  0  0  0  0  0  0  0  0  0  0  # atno 8009 bound_to 7997
  156.2715  140.2767  156.1434 H   0  0  0  0  0  0  0  0  0  0  0  0  # atno 8010 bound_to 7997
  140.3021  143.3156  152.0237 H   0  0  0  0  0  0  0  0  0  0  0  0  # atno 10167 bound_to 10162
  156.0068  130.4577  150.3813 H   0  0  0  0  0  0  0  0  0  0  0  0  # atno 10718 bound_to 10713
  154.8739  135.4017  154.3326 H   0  0  0  0  0  0  0  0  0  0  0  0  # atno 10763 bound_to 10752
  153.4137  135.7021  153.6347 H   0  0  0  0  0  0  0  0  0  0  0  0  # atno 10764 bound_to 10752
  153.5038  135.3722  155.2523 H   0  0  0  0  0  0  0  0  0  0  0  0  # atno 10765 bound_to 10752
  140.2158  134.3700  155.8027 H   0  0  0  0  0  0  0  0  0  0  0  0  # atno 11005 bound_to 11000
  145.8035  140.9760  143.0986 LP  0  0  0  0  0  0  0  0  0  0  0  0  # atno 17320 bound_to 7965
  144.6816  139.9831  143.7483 LP  0  0  0  0  0  0  0  0  0  0  0  0  # atno 17321 bound_to 7965
  139.4912  144.6448  151.6802 LP  0  0  0  0  0  0  0  0  0  0  0  0  # atno 17342 bound_to 10162
  140.5642  144.0218  150.6184 LP  0  0  0  0  0  0  0  0  0  0  0  0  # atno 17343 bound_to 10162
  157.1893  131.0411  151.2708 LP  0  0  0  0  0  0  0  0  0  0  0  0  # atno 17370 bound_to 10713
  157.4076  130.7367  149.6814 LP  0  0  0  0  0  0  0  0  0  0  0  0  # atno 17371 bound_to 10713
  141.2225  133.7167  156.8494 LP  0  0  0  0  0  0  0  0  0  0  0  0  # atno 17394 bound_to 11000
  140.1902  134.8971  157.3051 LP  0  0  0  0  0  0  0  0  0  0  0  0  # atno 17395 bound_to 11000

$$$$
