#       Name:                AV-unprocessed.smi:1406
#       Creating user name   scv26
#       Creation time:       Fri Mar 27 05:34:46 2020


#       File generated by GOLD software.
#

@<TRIPOS>MOLECULE
AV-unprocessed.smi:1406
    45    47     1
SMALL
NO_CHARGES


@<TRIPOS>ATOM
      1 ****        -3.3775  -2.6212   0.1063 C.3            1 S1                 0.0000
      2 ****        -2.7562  -1.3615   0.7434 C.3            1 S1                 0.0000
      3 ****        -1.2372  -1.2693   0.5266 C.2            1 S1                 0.0000
      4 ****        -0.5785  -2.2709   0.2453 O.2            1 S1                 0.0000
      5 ****        -0.6909  -0.0502   0.6608 N.am           1 S1                 0.0000
      6 ****         0.7302   0.2550   0.5270 C.3            1 S1                 0.0000
      7 ****         1.1580   1.4811   1.3528 C.3            1 S1                 0.0000
      8 ****         2.1979   2.2163   0.4844 C.3            1 S1                 0.0000
      9 ****         2.3877   1.3634  -0.7045 N.4            1 S1                 1.0000
     10 ****         2.8767   2.0220  -1.9353 C.3            1 S1                 0.0000
     11 ****         3.0923   0.9575  -3.0296 C.3            1 S1                 0.0000
     12 ****         1.8295   0.0999  -3.2493 C.3            1 S1                 0.0000
     13 ****         1.3128  -0.4819  -1.9193 C.3            1 S1                 0.0000
     14 ****         1.1145   0.6537  -0.9006 C.3            1 S1                 0.0000
     15 ****        -3.0721  -1.2539   2.1624 N.pl3          1 S1                 0.0000
     16 ****        -3.5125  -0.2090   2.8669 C.2            1 S1                 0.0000
     17 ****        -3.6538  -0.4534   4.1620 N.2            1 S1                 0.0000
     18 ****        -3.2486  -1.7577   4.1935 C.2            1 S1                 0.0000
     19 ****        -2.8795  -2.2827   3.0253 N.2            1 S1                 0.0000
     20 ****        -3.1790  -2.6591  -0.9654 H              1 S1                 0.0000
     21 ****        -4.4599  -2.6279   0.2372 H              1 S1                 0.0000
     22 ****        -2.9866  -3.5393   0.5470 H              1 S1                 0.0000
     23 ****        -3.2044  -0.4975   0.2492 H              1 S1                 0.0000
     24 ****        -1.3032   0.7185   0.8929 H              1 S1                 0.0000
     25 ****         1.3359  -0.5974   0.8429 H              1 S1                 0.0000
     26 ****         0.3133   2.1422   1.5524 H              1 S1                 0.0000
     27 ****         1.5724   1.1804   2.3158 H              1 S1                 0.0000
     28 ****         1.8134   3.1938   0.1887 H              1 S1                 0.0000
     29 ****         3.1433   2.3677   1.0061 H              1 S1                 0.0000
     30 ****         2.1573   2.7721  -2.2677 H              1 S1                 0.0000
     31 ****         3.8125   2.5413  -1.7256 H              1 S1                 0.0000
     32 ****         3.3865   1.4360  -3.9642 H              1 S1                 0.0000
     33 ****         3.9210   0.3086  -2.7426 H              1 S1                 0.0000
     34 ****         1.0502   0.7131  -3.7034 H              1 S1                 0.0000
     35 ****         2.0397  -0.7043  -3.9549 H              1 S1                 0.0000
     36 ****         0.3749  -1.0112  -2.0877 H              1 S1                 0.0000
     37 ****         2.0224  -1.2147  -1.5327 H              1 S1                 0.0000
     38 ****         0.3772   1.3622  -1.2857 H              1 S1                 0.0000
     39 ****        -3.7299   0.7521   2.4243 H              1 S1                 0.0000
     40 ****        -3.2181  -2.3356   5.1054 H              1 S1                 0.0000
     41 ****         3.0677   0.6617  -0.4486 H              1 S1                 0.0000
     42 ****        -1.0312  -3.1580   0.1553 LP             1 S1                 0.0000
     43 ****         0.4091  -2.1972   0.1068 LP             1 S1                 0.0000
     44 ****        -3.9662   0.1434   4.9011 LP             1 S1                 0.0000
     45 ****        -2.5442  -3.2050   2.8329 LP             1 S1                 0.0000
@<TRIPOS>BOND
    1    1    2 1     
    2    1   20 1     
    3    1   21 1     
    4    1   22 1     
    5    2    3 1     
    6    2   15 1     
    7    2   23 1     
    8    3    4 2     
    9    3    5 am    
   10    5    6 1     
   11    5   24 1     
   12    6   14 1     
   13    6    7 1     
   14    6   25 1     
   15    7    8 1     
   16    7   26 1     
   17    7   27 1     
   18    8    9 1     
   19    8   28 1     
   20    8   29 1     
   21    9   14 1     
   22    9   10 1     
   23    9   41 1     
   24   10   11 1     
   25   10   30 1     
   26   10   31 1     
   27   11   12 1     
   28   11   32 1     
   29   11   33 1     
   30   12   13 1     
   31   12   34 1     
   32   12   35 1     
   33   13   14 1     
   34   13   36 1     
   35   13   37 1     
   36   14   38 1     
   37   15   19 1     
   38   15   16 1     
   39   16   17 2     
   40   16   39 1     
   41   17   18 1     
   42   18   19 2     
   43   18   40 1     
   44    4   42 1     
   45    4   43 1     
   46   17   44 1     
   47   19   45 1     
@<TRIPOS>SUBSTRUCTURE
      1 S1             1
@<TRIPOS>SET
LONE_PAIRS      STATIC     ATOMS    <user>   **** ""
4 42 43 44 45
DONOR_HYDROGENS      STATIC     ATOMS    <user>   **** ""
2 24 41
ATOM$BLUE        STATIC     ATOMS    COLORGROUP SYSTEM
4 42 43 44 45
ATOM$RED        STATIC     ATOMS    COLORGROUP SYSTEM
2 24 41
