AV-unprocessed.smi:3145|AV-procd|sdf|11981|dock4
  -GOLD-   2272017383D 1   1.00000     0.00000
 Structure written by MMmdl.
 34 34  0  0  0  0  0  0  0  0  1 V2000
  146.4771  138.6836  151.3798 C   0  0  0  0  0  0  0  0  0  0  0  0
  146.5046  138.4282  152.8933 C   0  0  2  0  0  0  0  0  0  0  0  0
  145.4614  137.3609  153.2951 C   0  0  0  0  0  0  0  0  0  0  0  0
  145.6184  136.1062  152.5793 N   0  0  0  0  0  0  0  0  0  0  0  0
  145.4428  135.8615  151.2338 C   0  0  0  0  0  0  0  0  0  0  0  0
  145.7144  134.5401  151.0223 C   0  0  0  0  0  0  0  0  0  0  0  0
  146.0474  134.0516  152.3165 C   0  0  0  0  0  0  0  0  0  0  0  0
  145.9866  134.9901  153.2470 N   0  0  0  0  0  0  0  0  0  0  0  0
  146.2118  139.6941  153.5581 N   0  0  0  0  0  0  0  0  0  0  0  0
  147.0703  140.7865  153.0836 C   0  0  0  0  0  0  0  0  0  0  0  0
  148.3605  140.8704  153.8935 C   0  0  0  0  0  0  0  0  0  0  0  0
  149.1152  141.8335  153.7625 O   0  0  0  0  0  0  0  0  0  0  0  0
  148.6013  139.8459  154.7239 N   0  0  0  0  0  0  0  0  0  0  0  0
  149.7751  139.7268  155.5751 C   0  0  0  0  0  0  0  0  0  0  0  0
  150.7836  138.7524  154.9578 C   0  0  0  0  0  0  0  0  0  0  0  0
  152.1020  139.3658  154.7393 C   0  0  0  0  0  0  0  0  0  0  0  0
  153.1395  139.8482  154.5672 N   0  0  0  0  0  0  0  0  0  0  0  0
  146.7050  137.7721  150.8264 H   0  0  0  0  0  0  0  0  0  0  0  0
  147.2153  139.4329  151.0918 H   0  0  0  0  0  0  0  0  0  0  0  0
  145.4985  139.0348  151.0500 H   0  0  0  0  0  0  0  0  0  0  0  0
  147.5073  138.0791  153.1484 H   0  0  0  0  0  0  0  0  0  0  0  0
  145.5031  137.1675  154.3686 H   0  0  0  0  0  0  0  0  0  0  0  0
  144.4565  137.7319  153.0906 H   0  0  0  0  0  0  0  0  0  0  0  0
  145.1475  136.6410  150.5466 H   0  0  0  0  0  0  0  0  0  0  0  0
  145.6807  134.0041  150.0856 H   0  0  0  0  0  0  0  0  0  0  0  0
  146.3298  133.0501  152.6057 H   0  0  0  0  0  0  0  0  0  0  0  0
  145.2355  139.9233  153.4380 H   0  0  0  0  0  0  0  0  0  0  0  0
  147.3388  140.6402  152.0373 H   0  0  0  0  0  0  0  0  0  0  0  0
  146.5271  141.7306  153.1440 H   0  0  0  0  0  0  0  0  0  0  0  0
  147.9188  139.1023  154.7692 H   0  0  0  0  0  0  0  0  0  0  0  0
  150.2332  140.7090  155.7015 H   0  0  0  0  0  0  0  0  0  0  0  0
  149.4748  139.3783  156.5647 H   0  0  0  0  0  0  0  0  0  0  0  0
  150.9215  137.8849  155.6038 H   0  0  0  0  0  0  0  0  0  0  0  0
  150.4223  138.3871  153.9961 H   0  0  0  0  0  0  0  0  0  0  0  0
  1  2  1  0  0  0  0
  1 18  1  0  0  0  0
  1 19  1  0  0  0  0
  1 20  1  0  0  0  0
  2  3  1  0  0  0  0
  2  9  1  0  0  0  0
  2 21  1  0  0  0  0
  3  4  1  0  0  0  0
  3 22  1  0  0  0  0
  3 23  1  0  0  0  0
  4  8  1  0  0  0  0
  4  5  1  0  0  0  0
  5  6  2  0  0  0  0
  5 24  1  0  0  0  0
  6  7  1  0  0  0  0
  6 25  1  0  0  0  0
  7  8  2  0  0  0  0
  7 26  1  0  0  0  0
  9 10  1  0  0  0  0
  9 27  1  0  0  0  0
 10 11  1  0  0  0  0
 10 28  1  0  0  0  0
 10 29  1  0  0  0  0
 11 12  2  0  0  0  0
 11 13  1  0  0  0  0
 13 14  1  0  0  0  0
 13 30  1  0  0  0  0
 14 15  1  0  0  0  0
 14 31  1  0  0  0  0
 14 32  1  0  0  0  0
 15 16  1  0  0  0  0
 15 33  1  0  0  0  0
 15 34  1  0  0  0  0
 16 17  3  0  0  0  0
M  END
> <s_m_source_file>
AV-unprocessed.smi

> <i_m_source_file_index>
3145

> <i_lp_mmshare_version>
43012

> <i_f3d_flags>
0

> <s_epik_input>
bjFbY0hdW2NIXVtjSF1uMVtDSDJdW0NAQEhdKFtDSDNdKVtOSF1bQ0gyXUMoPU8pW05IXVtDSDJdW0NIMl1DI04=

> <s_epik_cmdline>
J2VwaWtfcHl0aG9uJywgJy1waCcsICc3LjAnLCAnLXRuJywgJzgnLCAnLW1hJywgJzIwMCcsICctbWV0YWxfYmluZGluZycsICctaW1hZScsICc8aW5maWxlLm1hZT4nLCAnLW9tYWUnLCAnPG91dGZpbGUubWFlPic=

> <r_lp_tautomer_probability>
1

> <r_epik_Ionization_Penalty>
0.765991

> <r_epik_Ionization_Penalty_Charging>
0

> <r_epik_Ionization_Penalty_Neutral>
0.765991

> <r_epik_State_Penalty>
0.794192

> <r_epik_Charging_Adjusted_Penalty>
0.794192

> <i_epik_Tot_Q>
0

> <i_epik_Tot_abs_Q>
0

> <r_epik_Metal_State_Penalty>
0.806127

> <b_epik_Metal_Only>
0

> <s_lp_Force_Field>
OPLS_2005

> <r_lp_Energy>
5.26669

> <b_lp_Chiralities_Consistent>
1

> <s_lp_Variant>
AV-unprocessed.smi:3145-3

> <Gold.Version>
5.8.1

> <Gold.Id.Protein>
6NUR|6NUR_protein|mol2

> <Gold.PLP.Fitness>
41.5409

> <Gold.PLP.PLP>
-32.4009

> <Gold.PLP.part.hbond>
-4.9232

> <Gold.PLP.part.metal>
0.0000

> <Gold.PLP.part.buried>
-0.8891

> <Gold.PLP.part.nonpolar>
-26.9078

> <Gold.PLP.part.repulsive>
0.3506

> <Gold.PLP.ligand.clash>
0.0000

> <Gold.PLP.ligand.torsion>
0.8540

> <Gold.PLP.Chemscore.Hbond>
2.5920

> <Gold.PLP.Chemscore.CHOScore>
1.0000

> <Gold.PLP.Chemscore.Metal>
0.0000

> <Gold.Chemscore.Hbonds>
donor molecule, donor type, donor heavy atom, donor atom, acceptor molecule, acceptor atom, score
      L1  H     9    27       P1 10175  1.00
      P1  H  7997  8008       L1    17  1.00
      P1  H  8011  8017       L1    12  0.56
      L1  C     5    24       P1 10171  1.00

> <Gold.PLP.Chemscore.Internal.Correction>
0.0720

> <Gold.Rescore>
     Score         DG    S(hbond)    S(metal)    S(lipo)     H(rot)  DE(clash)    DE(int)     intcor
     12.75     -13.72       2.63        0.00      56.48       2.80       0.09       0.88       ----

> <Gold.Chemscore.Fitness>
12.7525

> <Gold.Chemscore.DG>
-13.7172

> <Gold.Chemscore.ZeroCoef>
-5.4800

> <Gold.Chemscore.Hbond>
2.6345

> <Gold.Chemscore.Metal>
0.0000

> <Gold.Chemscore.Lipo>
56.4752

> <Gold.Chemscore.Internal_Hbond>
0.0000

> <Gold.Chemscore.DEClash>
0.0864

> <Gold.Chemscore.DEInternal>
0.8784

> <Gold.Chemscore.Rot>
2.8006

> <Gold.Chemscore.Internal.Correction>
   9.000000E+99

> <Gold.Chemscore.Hbonds>
donor molecule, donor type, donor heavy atom, donor atom, acceptor molecule, acceptor atom, score
      L1  H     9    27       P1 10175  0.98
      P1  H  7997  8008       L1    17  0.94
      P1  H  8011  8017       L1    12  0.56

> <Gold.Chemscore.Hbond.Weighted>
-8.7993

> <Gold.Chemscore.Metal.Weighted>
-0.0000

> <Gold.Chemscore.Lipo.Weighted>
-6.6076

> <Gold.Chemscore.Internal_Hbond.Weighted>
0.0000

> <Gold.Chemscore.DEClash.Weighted>
0.0864

> <Gold.Chemscore.DEInternal.Weighted>
0.8784

> <Gold.Chemscore.Rot.Weighted>
7.1696

> <Gold.Chemscore.Internal.Correction.Weighted>
   9.000000E+99

> <Gold.Protein.RotatedTorsions>
[ 6907 6896 6895 6894 ] final  -55.84 input  -60.11 | X-H torsion
[ 7974 7965 7964 7962 ] final -105.53 input  175.53 | X-H torsion
[ 8008 7997 7996 7995 ] final  -26.19 input   59.86 | X-H torsion
[ 10167 10162 10161 10158 ] final  -32.30 input  -65.29 | X-H torsion
[ 10718 10713 10712 10709 ] final   30.66 input   66.30 | X-H torsion
[ 10763 10752 10751 10750 ] final  156.48 input  -60.55 | X-H torsion
[ 11005 11000 10999 10996 ] final   31.61 input  -57.11 | X-H torsion

> <Gold.Protein.ActiveResidues>
 VAL166  LYS551  ARG553  GLY616  TRP617  ASP618  TYR619  PRO620  LYS621  CYS622 
 ASP623  PHE694  ASN695  SER759  ASP760  ASP761  ALA762  ILE779  LEU786  VAL792 
 PHE793  MET794  SER795  GLU796  ALA797  LYS798  CYS799  TRP800  GLU811  SER814 

> <Gold.Protein.RotatedAtoms>
  150.8217  134.7428  159.6777 H   0  0  0  0  0  0  0  0  0  0  0  0  # atno 6907 bound_to 6896
  152.4332  134.5734  159.9937 H   0  0  0  0  0  0  0  0  0  0  0  0  # atno 6908 bound_to 6896
  151.5916  133.3328  159.3065 H   0  0  0  0  0  0  0  0  0  0  0  0  # atno 6909 bound_to 6896
  145.2293  140.9164  143.3214 H   0  0  0  0  0  0  0  0  0  0  0  0  # atno 7974 bound_to 7965
  154.4437  140.1906  156.0737 H   0  0  0  0  0  0  0  0  0  0  0  0  # atno 8008 bound_to 7997
  156.0492  140.3310  155.7304 H   0  0  0  0  0  0  0  0  0  0  0  0  # atno 8009 bound_to 7997
  155.5583  140.0601  157.2825 H   0  0  0  0  0  0  0  0  0  0  0  0  # atno 8010 bound_to 7997
  140.7223  143.3705  151.1788 H   0  0  0  0  0  0  0  0  0  0  0  0  # atno 10167 bound_to 10162
  157.2625  130.7168  149.6461 H   0  0  0  0  0  0  0  0  0  0  0  0  # atno 10718 bound_to 10713
  154.1851  135.2797  155.3040 H   0  0  0  0  0  0  0  0  0  0  0  0  # atno 10763 bound_to 10752
  154.5972  135.5541  153.7341 H   0  0  0  0  0  0  0  0  0  0  0  0  # atno 10764 bound_to 10752
  153.0127  135.6383  154.1990 H   0  0  0  0  0  0  0  0  0  0  0  0  # atno 10765 bound_to 10752
  140.2820  134.2961  155.7798 H   0  0  0  0  0  0  0  0  0  0  0  0  # atno 11005 bound_to 11000
  144.9691  139.3899  143.6318 LP  0  0  0  0  0  0  0  0  0  0  0  0  # atno 17320 bound_to 7965
  146.3357  139.8780  142.8829 LP  0  0  0  0  0  0  0  0  0  0  0  0  # atno 17321 bound_to 7965
  139.7275  143.9125  152.3008 LP  0  0  0  0  0  0  0  0  0  0  0  0  # atno 17342 bound_to 10162
  139.8903  144.6969  150.8778 LP  0  0  0  0  0  0  0  0  0  0  0  0  # atno 17343 bound_to 10162
  155.9664  130.4393  150.5253 LP  0  0  0  0  0  0  0  0  0  0  0  0  # atno 17370 bound_to 10713
  157.3160  131.0673  151.1966 LP  0  0  0  0  0  0  0  0  0  0  0  0  # atno 17371 bound_to 10713
  141.2161  133.7531  156.9495 LP  0  0  0  0  0  0  0  0  0  0  0  0  # atno 17394 bound_to 11000
  140.1274  134.9378  157.2289 LP  0  0  0  0  0  0  0  0  0  0  0  0  # atno 17395 bound_to 11000

$$$$
