AV-unprocessed.smi:790|AV-procd|sdf|3747|dock1
  -GOLD-   22720 1173D 1   1.00000     0.00000
 Structure written by MMmdl.
 38 40  0  0  0  0  0  0  0  0  1 V2000
  145.1299  138.0615  153.0719 O   0  0  0  0  0  0  0  0  0  0  0  0
  146.1572  137.5533  152.6239 C   0  0  0  0  0  0  0  0  0  0  0  0
  147.3998  138.0482  152.7616 N   0  0  0  0  0  0  0  0  0  0  0  0
  147.8254  139.2382  153.4146 C   0  0  0  0  0  0  0  0  0  0  0  0
  149.0343  139.3720  154.1406 C   0  0  0  0  0  0  0  0  0  0  0  0
  149.3292  140.6071  154.7499 C   0  0  0  0  0  0  0  0  0  0  0  0
  148.4045  141.6608  154.6180 C   0  0  0  0  0  0  0  0  0  0  0  0
  147.2437  141.5451  153.9399 N   0  0  0  0  0  0  0  0  0  0  0  0
  146.9682  140.3580  153.3583 C   0  0  0  0  0  0  0  0  0  0  0  0
  146.1695  136.4051  151.9330 N   0  0  0  0  0  0  0  0  0  0  0  0
  144.9857  135.6092  151.6136 C   0  0  1  0  0  0  0  0  0  0  0  0
  145.2378  134.5382  150.5218 C   0  0  1  0  0  0  0  0  0  0  0  0
  146.4702  133.6692  150.8542 C   0  0  0  0  0  0  0  0  0  0  0  0
  145.9839  132.8435  152.0595 C   0  0  0  0  0  0  0  0  0  0  0  0
  144.5311  133.3251  152.2388 C   0  0  2  0  0  0  0  0  0  0  0  0
  144.1067  133.5546  150.7926 C   0  0  0  0  0  0  0  0  0  0  0  0
  144.5311  134.7552  152.8273 C   0  0  2  0  0  0  0  0  0  0  0  0
  143.1555  135.1654  153.3883 C   0  0  0  0  0  0  0  0  0  0  0  0
  142.9056  134.5003  154.6083 O   0  0  0  0  0  0  0  0  0  0  0  0
  148.1427  137.4785  152.3840 H   0  0  0  0  0  0  0  0  0  0  0  0
  149.7343  138.5599  154.2549 H   0  0  0  0  0  0  0  0  0  0  0  0
  150.2439  140.7423  155.3082 H   0  0  0  0  0  0  0  0  0  0  0  0
  148.6008  142.6206  155.0723 H   0  0  0  0  0  0  0  0  0  0  0  0
  146.0292  140.3027  152.8267 H   0  0  0  0  0  0  0  0  0  0  0  0
  147.0569  136.0519  151.6066 H   0  0  0  0  0  0  0  0  0  0  0  0
  144.1774  136.2705  151.2946 H   0  0  0  0  0  0  0  0  0  0  0  0
  145.2538  134.9440  149.5098 H   0  0  0  0  0  0  0  0  0  0  0  0
  146.7084  133.0112  150.0176 H   0  0  0  0  0  0  0  0  0  0  0  0
  147.3667  134.2484  151.0748 H   0  0  0  0  0  0  0  0  0  0  0  0
  146.0141  131.7777  151.8292 H   0  0  0  0  0  0  0  0  0  0  0  0
  146.5906  133.0086  152.9505 H   0  0  0  0  0  0  0  0  0  0  0  0
  143.9113  132.6197  152.7934 H   0  0  0  0  0  0  0  0  0  0  0  0
  143.1144  133.9960  150.6893 H   0  0  0  0  0  0  0  0  0  0  0  0
  144.1584  132.6537  150.1782 H   0  0  0  0  0  0  0  0  0  0  0  0
  145.2562  134.8042  153.6420 H   0  0  0  0  0  0  0  0  0  0  0  0
  143.0919  136.2421  153.5465 H   0  0  0  0  0  0  0  0  0  0  0  0
  142.3663  134.8961  152.6857 H   0  0  0  0  0  0  0  0  0  0  0  0
  142.6327  133.6157  154.4174 H   0  0  0  0  0  0  0  0  0  0  0  0
  1  2  2  0  0  0  0
  2  3  1  0  0  0  0
  2 10  1  0  0  0  0
  3  4  1  0  0  0  0
  3 20  1  0  0  0  0
  4  9  1  0  0  0  0
  4  5  2  0  0  0  0
  5  6  1  0  0  0  0
  5 21  1  0  0  0  0
  6  7  2  0  0  0  0
  6 22  1  0  0  0  0
  7  8  1  0  0  0  0
  7 23  1  0  0  0  0
  8  9  2  0  0  0  0
  9 24  1  0  0  0  0
 10 11  1  0  0  0  0
 10 25  1  0  0  0  0
 11 17  1  0  0  0  0
 11 12  1  0  0  0  0
 11 26  1  0  0  0  0
 12 16  1  0  0  0  0
 12 13  1  0  0  0  0
 12 27  1  0  0  0  0
 13 14  1  0  0  0  0
 13 28  1  0  0  0  0
 13 29  1  0  0  0  0
 14 15  1  0  0  0  0
 14 30  1  0  0  0  0
 14 31  1  0  0  0  0
 15 16  1  0  0  0  0
 15 17  1  0  0  0  0
 15 32  1  0  0  0  0
 16 33  1  0  0  0  0
 16 34  1  0  0  0  0
 17 18  1  0  0  0  0
 17 35  1  0  0  0  0
 18 19  1  0  0  0  0
 18 36  1  0  0  0  0
 18 37  1  0  0  0  0
 19 38  1  0  0  0  0
M  END
> <s_m_source_file>
AV-unprocessed.smi

> <i_m_source_file_index>
790

> <i_lp_mmshare_version>
43012

> <i_f3d_flags>
0

> <s_epik_input>
W0NIMl0xW0NIMl1bQ0BASF0oW0NIMl0yKVtDQEBIXShbQ0gyXVtPSF0pW0NAQEhdKFtDQEhdMTIpW05IXUMoPU8pW05IXWMzW2NIXVtjSF1bY0hdbltjSF0z

> <s_epik_cmdline>
J2VwaWtfcHl0aG9uJywgJy1waCcsICc3LjAnLCAnLXRuJywgJzgnLCAnLW1hJywgJzIwMCcsICctbWV0YWxfYmluZGluZycsICctaW1hZScsICc8aW5maWxlLm1hZT4nLCAnLW9tYWUnLCAnPG91dGZpbGUubWFlPic=

> <r_epik_Ionization_Penalty>
0.00497582

> <r_epik_Ionization_Penalty_Charging>
0

> <r_epik_Ionization_Penalty_Neutral>
0.00497582

> <r_epik_State_Penalty>
0.00358602

> <r_epik_Charging_Adjusted_Penalty>
0.00358602

> <i_epik_Tot_Q>
0

> <i_epik_Tot_abs_Q>
0

> <r_epik_Metal_State_Penalty>
-0

> <b_epik_Metal_Only>
0

> <s_lp_Force_Field>
OPLS_2005

> <r_lp_Energy>
55.2793

> <b_lp_Chiralities_Consistent>
1

> <s_lp_Variant>
AV-unprocessed.smi:790-8

> <Gold.Version>
5.8.1

> <Gold.Id.Protein>
6NUR|6NUR_protein|mol2

> <Gold.PLP.Fitness>
44.1610

> <Gold.PLP.PLP>
-30.5763

> <Gold.PLP.part.hbond>
-3.1539

> <Gold.PLP.part.metal>
0.0000

> <Gold.PLP.part.buried>
-1.0625

> <Gold.PLP.part.nonpolar>
-27.5049

> <Gold.PLP.part.repulsive>
2.3013

> <Gold.PLP.ligand.clash>
0.0000

> <Gold.PLP.ligand.torsion>
0.5386

> <Gold.PLP.Chemscore.Hbond>
2.8800

> <Gold.PLP.Chemscore.CHOScore>
2.0000

> <Gold.PLP.Chemscore.Metal>
0.0000

> <Gold.Chemscore.Hbonds>
donor molecule, donor type, donor heavy atom, donor atom, acceptor molecule, acceptor atom, score
      L1  H     3    20       P1  7948  1.00
      L1  H    10    25       P1  7948  0.88
      L1  H    19    38       P1 10957  1.00
      L1  C     7    23       P1  8028  1.00
      L1  C     9    24       P1 10175  1.00

> <Gold.PLP.Chemscore.Internal.Correction>
0.0219

> <Gold.Rescore>
     Score         DG    S(hbond)    S(metal)    S(lipo)     H(rot)  DE(clash)    DE(int)     intcor
     16.38     -19.30       2.96        0.00      72.65       1.78       1.20       1.72       ----

> <Gold.Chemscore.Fitness>
16.3850

> <Gold.Chemscore.DG>
-19.3012

> <Gold.Chemscore.ZeroCoef>
-5.4800

> <Gold.Chemscore.Hbond>
2.9560

> <Gold.Chemscore.Metal>
0.0000

> <Gold.Chemscore.Lipo>
72.6544

> <Gold.Chemscore.Internal_Hbond>
0.0000

> <Gold.Chemscore.DEClash>
1.1956

> <Gold.Chemscore.DEInternal>
1.7207

> <Gold.Chemscore.Rot>
1.7783

> <Gold.Chemscore.Internal.Correction>
   9.000000E+99

> <Gold.Chemscore.Hbonds>
donor molecule, donor type, donor heavy atom, donor atom, acceptor molecule, acceptor atom, score
      L1  H     3    20       P1  7948  0.96
      L1  H    10    25       P1  7948  0.86
      L1  H    19    38       P1 10957  0.95

> <Gold.Chemscore.Hbond.Weighted>
-9.8732

> <Gold.Chemscore.Metal.Weighted>
-0.0000

> <Gold.Chemscore.Lipo.Weighted>
-8.5006

> <Gold.Chemscore.Internal_Hbond.Weighted>
0.0000

> <Gold.Chemscore.DEClash.Weighted>
1.1956

> <Gold.Chemscore.DEInternal.Weighted>
1.7207

> <Gold.Chemscore.Rot.Weighted>
4.5525

> <Gold.Chemscore.Internal.Correction.Weighted>
   9.000000E+99

> <Gold.Protein.RotatedTorsions>
[ 6907 6896 6895 6894 ] final   15.57 input  -60.11 | X-H torsion
[ 7974 7965 7964 7962 ] final -135.44 input  175.53 | X-H torsion
[ 8008 7997 7996 7995 ] final -177.69 input   59.86 | X-H torsion
[ 10167 10162 10161 10158 ] final  -22.15 input  -65.29 | X-H torsion
[ 10718 10713 10712 10709 ] final  -45.81 input   66.30 | X-H torsion
[ 10763 10752 10751 10750 ] final -148.52 input  -60.55 | X-H torsion
[ 11005 11000 10999 10996 ] final  -32.43 input  -57.11 | X-H torsion

> <Gold.Protein.ActiveResidues>
 VAL166  LYS551  ARG553  GLY616  TRP617  ASP618  TYR619  PRO620  LYS621  CYS622 
 ASP623  PHE694  ASN695  SER759  ASP760  ASP761  ALA762  ILE779  LEU786  VAL792 
 PHE793  MET794  SER795  GLU796  ALA797  LYS798  CYS799  TRP800  GLU811  SER814 

> <Gold.Protein.RotatedAtoms>
  151.8202  135.0654  160.0423 H   0  0  0  0  0  0  0  0  0  0  0  0  # atno 6907 bound_to 6896
  152.2956  133.5600  159.5594 H   0  0  0  0  0  0  0  0  0  0  0  0  # atno 6908 bound_to 6896
  150.7250  134.0281  159.3766 H   0  0  0  0  0  0  0  0  0  0  0  0  # atno 6909 bound_to 6896
  144.9013  140.6775  143.5083 H   0  0  0  0  0  0  0  0  0  0  0  0  # atno 7974 bound_to 7965
  156.0099  140.1238  157.0464 H   0  0  0  0  0  0  0  0  0  0  0  0  # atno 8008 bound_to 7997
  154.4272  140.1090  156.5884 H   0  0  0  0  0  0  0  0  0  0  0  0  # atno 8009 bound_to 7997
  155.6094  140.3471  155.4620 H   0  0  0  0  0  0  0  0  0  0  0  0  # atno 8010 bound_to 7997
  140.7285  143.4561  151.0446 H   0  0  0  0  0  0  0  0  0  0  0  0  # atno 10167 bound_to 10162
  156.2246  130.4168  149.8950 H   0  0  0  0  0  0  0  0  0  0  0  0  # atno 10718 bound_to 10713
  154.8228  135.3332  154.6986 H   0  0  0  0  0  0  0  0  0  0  0  0  # atno 10763 bound_to 10752
  153.7617  135.6932  153.4928 H   0  0  0  0  0  0  0  0  0  0  0  0  # atno 10764 bound_to 10752
  153.2106  135.4483  155.0324 H   0  0  0  0  0  0  0  0  0  0  0  0  # atno 10765 bound_to 10752
  140.9551  133.7197  156.1281 H   0  0  0  0  0  0  0  0  0  0  0  0  # atno 11005 bound_to 11000
  145.3611  139.1681  143.4383 LP  0  0  0  0  0  0  0  0  0  0  0  0  # atno 17320 bound_to 7965
  146.3110  140.3673  142.8670 LP  0  0  0  0  0  0  0  0  0  0  0  0  # atno 17321 bound_to 7965
  139.8241  143.7779  152.3178 LP  0  0  0  0  0  0  0  0  0  0  0  0  # atno 17342 bound_to 10162
  139.7872  144.7423  151.0005 LP  0  0  0  0  0  0  0  0  0  0  0  0  # atno 17343 bound_to 10162
  156.6585  130.8772  151.3543 LP  0  0  0  0  0  0  0  0  0  0  0  0  # atno 17370 bound_to 10713
  157.7104  130.9434  150.1070 LP  0  0  0  0  0  0  0  0  0  0  0  0  # atno 17371 bound_to 10713
  140.7547  134.4006  157.5536 LP  0  0  0  0  0  0  0  0  0  0  0  0  # atno 17394 bound_to 11000
  139.8860  134.8922  156.2612 LP  0  0  0  0  0  0  0  0  0  0  0  0  # atno 17395 bound_to 11000

$$$$
