AV-unprocessed.smi:2622|AV-procd|sdf|10228|dock8
  -GOLD-   2272014233D 1   1.00000     0.00000
 Structure written by MMmdl.
 27 28  0  0  0  0  0  0  0  0  3 V2000
  151.1952  139.5094  158.1734 O   0  0  0  0  0  0  0  0  0  0  0  0
  152.1471  140.3041  158.3392 C   0  0  0  0  0  0  0  0  0  0  0  0
  153.2974  139.8922  158.6058 O   0  5  0  0  0  0  0  0  0  0  0  0
  151.8753  141.7879  158.2093 C   0  0  0  0  0  0  0  0  0  0  0  0
  152.7299  142.6989  158.8809 C   0  0  0  0  0  0  0  0  0  0  0  0
  152.5128  144.0873  158.7866 C   0  0  0  0  0  0  0  0  0  0  0  0
  151.4360  144.5571  158.0162 C   0  0  0  0  0  0  0  0  0  0  0  0
  150.6349  143.6759  157.3852 N   0  3  0  0  0  0  0  0  0  0  0  0
  150.7986  142.3299  157.4423 C   0  0  0  0  0  0  0  0  0  0  0  0
  149.8742  141.5498  156.7282 N   0  0  0  0  0  0  0  0  0  0  0  0
  148.5134  141.6188  157.2425 C   0  0  0  0  0  0  0  0  0  0  0  0
  147.6274  140.5987  156.5078 C   0  0  0  0  0  0  0  0  0  0  0  0
  147.6995  140.8290  155.1030 O   0  0  0  0  0  0  0  0  0  0  0  0
  149.0254  140.6766  154.6029 C   0  0  0  0  0  0  0  0  0  0  0  0
  149.9514  141.7000  155.2815 C   0  0  0  0  0  0  0  0  0  0  0  0
  153.5602  142.3461  159.4754 H   0  0  0  0  0  0  0  0  0  0  0  0
  153.1647  144.7794  159.2991 H   0  0  0  0  0  0  0  0  0  0  0  0
  151.1916  145.6012  157.8860 H   0  0  0  0  0  0  0  0  0  0  0  0
  148.5126  141.4145  158.3139 H   0  0  0  0  0  0  0  0  0  0  0  0
  148.1162  142.6250  157.1032 H   0  0  0  0  0  0  0  0  0  0  0  0
  147.9388  139.5779  156.7360 H   0  0  0  0  0  0  0  0  0  0  0  0
  146.5917  140.6967  156.8329 H   0  0  0  0  0  0  0  0  0  0  0  0
  149.3767  139.6582  154.7783 H   0  0  0  0  0  0  0  0  0  0  0  0
  149.0200  140.8311  153.5240 H   0  0  0  0  0  0  0  0  0  0  0  0
  149.6585  142.7116  154.9978 H   0  0  0  0  0  0  0  0  0  0  0  0
  150.9803  141.5541  154.9497 H   0  0  0  0  0  0  0  0  0  0  0  0
  149.8595  144.0420  156.8326 H   0  0  0  0  0  0  0  0  0  0  0  0
  1  2  2  0  0  0  0
  2  3  1  0  0  0  0
  2  4  1  0  0  0  0
  4  9  1  0  0  0  0
  4  5  2  0  0  0  0
  5  6  1  0  0  0  0
  5 16  1  0  0  0  0
  6  7  2  0  0  0  0
  6 17  1  0  0  0  0
  7  8  1  0  0  0  0
  7 18  1  0  0  0  0
  8  9  2  0  0  0  0
  8 27  1  0  0  0  0
  9 10  1  0  0  0  0
 10 15  1  0  0  0  0
 10 11  1  0  0  0  0
 11 12  1  0  0  0  0
 11 19  1  0  0  0  0
 11 20  1  0  0  0  0
 12 13  1  0  0  0  0
 12 21  1  0  0  0  0
 12 22  1  0  0  0  0
 13 14  1  0  0  0  0
 14 15  1  0  0  0  0
 14 23  1  0  0  0  0
 14 24  1  0  0  0  0
 15 25  1  0  0  0  0
 15 26  1  0  0  0  0
M  CHG  1   3  -1
M  CHG  1   8   1
M  END
> <s_m_source_file>
AV-unprocessed.smi

> <i_m_source_file_index>
2622

> <i_lp_mmshare_version>
43012

> <i_f3d_flags>
0

> <s_epik_input>
Tz1DKFtPSF0pYzFbY0hdW2NIXVtjSF1uYzFOMltDSDJdW0NIMl1PW0NIMl1bQ0gyXTI=

> <s_epik_cmdline>
J2VwaWtfcHl0aG9uJywgJy1waCcsICc3LjAnLCAnLXRuJywgJzgnLCAnLW1hJywgJzIwMCcsICctbWV0YWxfYmluZGluZycsICctaW1hZScsICc8aW5maWxlLm1hZT4nLCAnLW9tYWUnLCAnPG91dGZpbGUubWFlPic=

> <r_epik_Ionization_Penalty>
2.51472

> <r_epik_Ionization_Penalty_Charging>
2.51472

> <r_epik_Ionization_Penalty_Neutral>
3.20239e-12

> <r_epik_State_Penalty>
2.68069

> <r_epik_Charging_Adjusted_Penalty>
5.19542

> <i_epik_Tot_Q>
0

> <i_epik_Tot_abs_Q>
2

> <r_epik_Metal_State_Penalty>
6.76699

> <b_epik_Metal_Only>
0

> <s_lp_Force_Field>
OPLS_2005

> <r_lp_Energy>
23.1971

> <b_lp_Chiralities_Consistent>
1

> <s_lp_Variant>
AV-unprocessed.smi:2622-2

> <Gold.Version>
5.8.1

> <Gold.Id.Protein>
6NUR|6NUR_protein|mol2

> <Gold.PLP.Fitness>
39.2752

> <Gold.PLP.PLP>
-27.7978

> <Gold.PLP.part.hbond>
-2.0000

> <Gold.PLP.part.metal>
0.0000

> <Gold.PLP.part.buried>
-3.6053

> <Gold.PLP.part.nonpolar>
-21.6811

> <Gold.PLP.part.repulsive>
0.1511

> <Gold.PLP.ligand.clash>
0.0000

> <Gold.PLP.ligand.torsion>
0.3422

> <Gold.PLP.Chemscore.Hbond>
4.0000

> <Gold.PLP.Chemscore.CHOScore>
0.0000

> <Gold.PLP.Chemscore.Metal>
0.0000

> <Gold.Chemscore.Hbonds>
donor molecule, donor type, donor heavy atom, donor atom, acceptor molecule, acceptor atom, score
      L1  H     8    27       P1  8028  2.00
      P1  H  7997  8009       L1     3  1.77

> <Gold.PLP.Chemscore.Internal.Correction>
0.1618

> <Gold.Rescore>
     Score         DG    S(hbond)    S(metal)    S(lipo)     H(rot)  DE(clash)    DE(int)     intcor
     15.33     -17.04       1.92        0.00      65.96       1.00       0.00       1.70       ----

> <Gold.Chemscore.Fitness>
15.3339

> <Gold.Chemscore.DG>
-17.0373

> <Gold.Chemscore.ZeroCoef>
-5.4800

> <Gold.Chemscore.Hbond>
1.9162

> <Gold.Chemscore.Metal>
0.0000

> <Gold.Chemscore.Lipo>
65.9602

> <Gold.Chemscore.Internal_Hbond>
0.0000

> <Gold.Chemscore.DEClash>
0.0000

> <Gold.Chemscore.DEInternal>
1.7035

> <Gold.Chemscore.Rot>
1.0000

> <Gold.Chemscore.Internal.Correction>
   9.000000E+99

> <Gold.Chemscore.Hbonds>
donor molecule, donor type, donor heavy atom, donor atom, acceptor molecule, acceptor atom, score
      L1  H     8    27       P1  8028  0.94
      P1  H  7997  8009       L1     3  0.81

> <Gold.Chemscore.Hbond.Weighted>
-6.4000

> <Gold.Chemscore.Metal.Weighted>
-0.0000

> <Gold.Chemscore.Lipo.Weighted>
-7.7173

> <Gold.Chemscore.Internal_Hbond.Weighted>
0.0000

> <Gold.Chemscore.DEClash.Weighted>
0.0000

> <Gold.Chemscore.DEInternal.Weighted>
1.7035

> <Gold.Chemscore.Rot.Weighted>
2.5600

> <Gold.Chemscore.Internal.Correction.Weighted>
   9.000000E+99

> <Gold.Protein.RotatedTorsions>
[ 6907 6896 6895 6894 ] final   38.12 input  -60.11 | X-H torsion
[ 7974 7965 7964 7962 ] final  -41.92 input  175.53 | X-H torsion
[ 8008 7997 7996 7995 ] final  135.44 input   59.86 | X-H torsion
[ 10167 10162 10161 10158 ] final  -42.20 input  -65.29 | X-H torsion
[ 10718 10713 10712 10709 ] final   72.02 input   66.30 | X-H torsion
[ 10763 10752 10751 10750 ] final  -56.50 input  -60.55 | X-H torsion
[ 11005 11000 10999 10996 ] final -175.81 input  -57.11 | X-H torsion

> <Gold.Protein.ActiveResidues>
 VAL166  LYS551  ARG553  GLY616  TRP617  ASP618  TYR619  PRO620  LYS621  CYS622 
 ASP623  PHE694  ASN695  SER759  ASP760  ASP761  ALA762  ILE779  LEU786  VAL792 
 PHE793  MET794  SER795  GLU796  ALA797  LYS798  CYS799  TRP800  GLU811  SER814 

> <Gold.Protein.RotatedAtoms>
  152.1523  134.8978  160.0547 H   0  0  0  0  0  0  0  0  0  0  0  0  # atno 6907 bound_to 6896
  152.0006  133.3819  159.4188 H   0  0  0  0  0  0  0  0  0  0  0  0  # atno 6908 bound_to 6896
  150.6877  134.3760  159.5057 H   0  0  0  0  0  0  0  0  0  0  0  0  # atno 6909 bound_to 6896
  146.0165  140.6902  142.9199 H   0  0  0  0  0  0  0  0  0  0  0  0  # atno 7974 bound_to 7965
  156.3003  140.2470  156.3582 H   0  0  0  0  0  0  0  0  0  0  0  0  # atno 8008 bound_to 7997
  154.8902  140.0409  157.1853 H   0  0  0  0  0  0  0  0  0  0  0  0  # atno 8009 bound_to 7997
  154.8606  140.2920  155.5546 H   0  0  0  0  0  0  0  0  0  0  0  0  # atno 8010 bound_to 7997
  140.6977  143.3051  151.3176 H   0  0  0  0  0  0  0  0  0  0  0  0  # atno 10167 bound_to 10162
  157.6480  130.9557  150.0870 H   0  0  0  0  0  0  0  0  0  0  0  0  # atno 10718 bound_to 10713
  154.2077  135.6400  153.5106 H   0  0  0  0  0  0  0  0  0  0  0  0  # atno 10763 bound_to 10752
  152.9997  135.5466  154.6248 H   0  0  0  0  0  0  0  0  0  0  0  0  # atno 10764 bound_to 10752
  154.5677  135.2914  155.0831 H   0  0  0  0  0  0  0  0  0  0  0  0  # atno 10765 bound_to 10752
  140.4591  134.6271  157.4835 H   0  0  0  0  0  0  0  0  0  0  0  0  # atno 11005 bound_to 11000
  144.6973  140.3490  143.7185 LP  0  0  0  0  0  0  0  0  0  0  0  0  # atno 17320 bound_to 7965
  145.7261  139.1723  143.2457 LP  0  0  0  0  0  0  0  0  0  0  0  0  # atno 17321 bound_to 7965
  139.6453  144.0462  152.2586 LP  0  0  0  0  0  0  0  0  0  0  0  0  # atno 17342 bound_to 10162
  139.9981  144.6313  150.7754 LP  0  0  0  0  0  0  0  0  0  0  0  0  # atno 17343 bound_to 10162
  156.1830  130.3651  149.9010 LP  0  0  0  0  0  0  0  0  0  0  0  0  # atno 17370 bound_to 10713
  156.6958  130.8913  151.3593 LP  0  0  0  0  0  0  0  0  0  0  0  0  # atno 17371 bound_to 10713
  139.9957  134.6915  155.9614 LP  0  0  0  0  0  0  0  0  0  0  0  0  # atno 17394 bound_to 11000
  141.1629  133.6538  156.4381 LP  0  0  0  0  0  0  0  0  0  0  0  0  # atno 17395 bound_to 11000

$$$$
