#       Name:                AV-unprocessed.smi:2020
#       Creating user name   scv26
#       Creation time:       Fri Mar 27 10:42:14 2020


#       File generated by GOLD software.
#

@<TRIPOS>MOLECULE
AV-unprocessed.smi:2020
    45    46     1
SMALL
NO_CHARGES


@<TRIPOS>ATOM
      1 ****        -3.2671   6.4670  -3.0479 C.3            1 S1                 0.0000
      2 ****        -2.9900   5.5484  -1.9075 C.2            1 S1                 0.0000
      3 ****        -2.5177   4.3079  -2.0552 N.2            1 S1                 0.0000
      4 ****        -2.3418   3.6499  -0.8337 C.2            1 S1                 0.0000
      5 ****        -1.8114   2.2489  -0.8065 C.3            1 S1                 0.0000
      6 ****        -0.2846   2.2049  -0.9841 C.3            1 S1                 0.0000
      7 ****         0.2260   0.8388  -0.9542 N.am           1 S1                 0.0000
      8 ****         0.4340   0.1226   0.1597 C.2            1 S1                 0.0000
      9 ****         0.2058   0.5376   1.2962 O.2            1 S1                 0.0000
     10 ****         0.9203  -1.0957  -0.1175 N.am           1 S1                 0.0000
     11 ****         1.2627  -2.1225   0.8634 C.3            1 S1                 0.0000
     12 ****         2.7418  -2.5220   0.7010 C.3            1 S1                 0.0000
     13 ****         3.1253  -3.6611   1.6593 C.3            1 S1                 0.0000
     14 ****         2.2018  -4.8770   1.4715 C.3            1 S1                 0.0000
     15 ****         2.5385  -5.8749   2.4118 O.3            1 S1                 0.0000
     16 ****         0.7248  -4.4829   1.6458 C.3            1 S1                 0.0000
     17 ****         0.3384  -3.3431   0.6889 C.3            1 S1                 0.0000
     18 ****        -2.6885   4.4181   0.2496 C.2            1 S1                 0.0000
     19 ****        -3.2527   5.9961  -0.2265 S.3            1 S1                 0.0000
     20 ****        -3.0802   5.9672  -3.9991 H              1 S1                 0.0000
     21 ****        -2.6248   7.3454  -2.9825 H              1 S1                 0.0000
     22 ****        -4.3078   6.7895  -3.0217 H              1 S1                 0.0000
     23 ****        -2.0871   1.7722   0.1350 H              1 S1                 0.0000
     24 ****        -2.2861   1.6569  -1.5902 H              1 S1                 0.0000
     25 ****        -0.0088   2.6480  -1.9416 H              1 S1                 0.0000
     26 ****         0.2062   2.8019  -0.2134 H              1 S1                 0.0000
     27 ****         0.4449   0.4144  -1.8436 H              1 S1                 0.0000
     28 ****         1.0700  -1.3328  -1.0873 H              1 S1                 0.0000
     29 ****         1.1281  -1.7381   1.8763 H              1 S1                 0.0000
     30 ****         2.9305  -2.8375  -0.3262 H              1 S1                 0.0000
     31 ****         3.3835  -1.6588   0.8820 H              1 S1                 0.0000
     32 ****         4.1640  -3.9488   1.4927 H              1 S1                 0.0000
     33 ****         3.0640  -3.3029   2.6881 H              1 S1                 0.0000
     34 ****         2.3498  -5.2927   0.4739 H              1 S1                 0.0000
     35 ****         2.4151  -5.5235   3.2804 H              1 S1                 0.0000
     36 ****         0.0824  -5.3464   1.4690 H              1 S1                 0.0000
     37 ****         0.5433  -4.1672   2.6742 H              1 S1                 0.0000
     38 ****        -0.6988  -3.0541   0.8626 H              1 S1                 0.0000
     39 ****         0.3904  -3.7039  -0.3396 H              1 S1                 0.0000
     40 ****        -2.6439   4.1520   1.2954 H              1 S1                 0.0000
     41 ****        -2.3123   3.8946  -2.9423 LP             1 S1                 0.0000
     42 ****        -0.1568   1.4601   1.4282 LP             1 S1                 0.0000
     43 ****         0.3831  -0.0479   2.0873 LP             1 S1                 0.0000
     44 ****         3.4937  -6.1446   2.2898 LP             1 S1                 0.0000
     45 ****         1.9482  -6.6719   2.2836 LP             1 S1                 0.0000
@<TRIPOS>BOND
    1    1    2 1     
    2    1   20 1     
    3    1   21 1     
    4    1   22 1     
    5    2   19 1     
    6    2    3 2     
    7    3    4 1     
    8    4    5 1     
    9    4   18 2     
   10    5    6 1     
   11    5   23 1     
   12    5   24 1     
   13    6    7 1     
   14    6   25 1     
   15    6   26 1     
   16    7    8 am    
   17    7   27 1     
   18    8    9 2     
   19    8   10 am    
   20   10   11 1     
   21   10   28 1     
   22   11   17 1     
   23   11   12 1     
   24   11   29 1     
   25   12   13 1     
   26   12   30 1     
   27   12   31 1     
   28   13   14 1     
   29   13   32 1     
   30   13   33 1     
   31   14   15 1     
   32   14   16 1     
   33   14   34 1     
   34   15   35 1     
   35   16   17 1     
   36   16   36 1     
   37   16   37 1     
   38   17   38 1     
   39   17   39 1     
   40   18   19 1     
   41   18   40 1     
   42    3   41 1     
   43    9   42 1     
   44    9   43 1     
   45   15   44 1     
   46   15   45 1     
@<TRIPOS>SUBSTRUCTURE
      1 S1             1
@<TRIPOS>SET
LONE_PAIRS      STATIC     ATOMS    <user>   **** ""
5 41 42 43 44 45
DONOR_HYDROGENS      STATIC     ATOMS    <user>   **** ""
3 27 28 35
ATOM$BLUE        STATIC     ATOMS    COLORGROUP SYSTEM
5 41 42 43 44 45
ATOM$RED        STATIC     ATOMS    COLORGROUP SYSTEM
3 27 28 35
