AV-unprocessed.smi:2074|AV-procd|sdf|8454|dock6
  -GOLD-   2272011153D 1   1.00000     0.00000
 Structure written by MMmdl.
 44 45  0  0  0  0  0  0  0  0  2 V2000
  148.9127  137.6023  158.8303 C   0  0  0  0  0  0  0  0  0  0  0  0
  148.2574  136.7469  159.8767 C   0  0  0  0  0  0  0  0  0  0  0  0
  147.8285  137.3099  160.9935 N   0  0  0  0  0  0  0  0  0  0  0  0
  147.2763  136.2768  161.7566 O   0  0  0  0  0  0  0  0  0  0  0  0
  147.3949  135.1181  161.0605 C   0  0  0  0  0  0  0  0  0  0  0  0
  146.8566  133.8906  161.7143 C   0  0  0  0  0  0  0  0  0  0  0  0
  148.0084  135.3436  159.8584 C   0  0  0  0  0  0  0  0  0  0  0  0
  148.3395  134.3503  158.7736 C   0  0  0  0  0  0  0  0  0  0  0  0
  147.0682  133.9814  158.0089 C   0  0  0  0  0  0  0  0  0  0  0  0
  146.0991  133.5166  158.6081 O   0  0  0  0  0  0  0  0  0  0  0  0
  147.0815  134.2013  156.6863 N   0  0  0  0  0  0  0  0  0  0  0  0
  145.9547  133.9578  155.7939 C   0  0  0  0  0  0  0  0  0  0  0  0
  146.2965  132.9238  154.6879 C   0  0  2  0  0  0  0  0  0  0  0  0
  147.6653  133.2592  154.0480 C   0  0  0  0  0  0  0  0  0  0  0  0
  145.2365  132.8115  153.6309 N   0  3  0  0  0  0  0  0  0  0  0  0
  144.8313  134.1338  153.0779 C   0  0  0  0  0  0  0  0  0  0  0  0
  143.6979  133.9866  152.0495 C   0  0  0  0  0  0  0  0  0  0  0  0
  144.1180  133.1249  151.0034 O   0  0  0  0  0  0  0  0  0  0  0  0
  144.4016  131.8221  151.4897 C   0  0  0  0  0  0  0  0  0  0  0  0
  145.5513  131.8807  152.5108 C   0  0  0  0  0  0  0  0  0  0  0  0
  148.9120  137.1129  157.8567 H   0  0  0  0  0  0  0  0  0  0  0  0
  149.9491  137.8144  159.0933 H   0  0  0  0  0  0  0  0  0  0  0  0
  148.3950  138.5554  158.7171 H   0  0  0  0  0  0  0  0  0  0  0  0
  146.7058  133.0932  160.9864 H   0  0  0  0  0  0  0  0  0  0  0  0
  145.8984  134.0940  162.1926 H   0  0  0  0  0  0  0  0  0  0  0  0
  147.5459  133.5264  162.4761 H   0  0  0  0  0  0  0  0  0  0  0  0
  149.0752  134.7478  158.0738 H   0  0  0  0  0  0  0  0  0  0  0  0
  148.7814  133.4440  159.1897 H   0  0  0  0  0  0  0  0  0  0  0  0
  147.9208  134.5845  156.2763 H   0  0  0  0  0  0  0  0  0  0  0  0
  145.1404  133.6042  156.4266 H   0  0  0  0  0  0  0  0  0  0  0  0
  145.6347  134.8973  155.3393 H   0  0  0  0  0  0  0  0  0  0  0  0
  146.3772  131.9514  155.1769 H   0  0  0  0  0  0  0  0  0  0  0  0
  148.4546  133.3562  154.7929 H   0  0  0  0  0  0  0  0  0  0  0  0
  147.6206  134.1992  153.4972 H   0  0  0  0  0  0  0  0  0  0  0  0
  148.0090  132.4876  153.3618 H   0  0  0  0  0  0  0  0  0  0  0  0
  144.4860  134.8023  153.8637 H   0  0  0  0  0  0  0  0  0  0  0  0
  145.6929  134.6126  152.6097 H   0  0  0  0  0  0  0  0  0  0  0  0
  142.7905  133.6017  152.5182 H   0  0  0  0  0  0  0  0  0  0  0  0
  143.4485  134.9590  151.6248 H   0  0  0  0  0  0  0  0  0  0  0  0
  143.5069  131.3841  151.9354 H   0  0  0  0  0  0  0  0  0  0  0  0
  144.6793  131.1863  150.6488 H   0  0  0  0  0  0  0  0  0  0  0  0
  146.4733  132.1964  152.0200 H   0  0  0  0  0  0  0  0  0  0  0  0
  145.7048  130.8667  152.8783 H   0  0  0  0  0  0  0  0  0  0  0  0
  144.4229  132.4244  154.0877 H   0  0  0  0  0  0  0  0  0  0  0  0
  1  2  1  0  0  0  0
  1 21  1  0  0  0  0
  1 22  1  0  0  0  0
  1 23  1  0  0  0  0
  2  7  1  0  0  0  0
  2  3  2  0  0  0  0
  3  4  1  0  0  0  0
  4  5  1  0  0  0  0
  5  6  1  0  0  0  0
  5  7  2  0  0  0  0
  6 24  1  0  0  0  0
  6 25  1  0  0  0  0
  6 26  1  0  0  0  0
  7  8  1  0  0  0  0
  8  9  1  0  0  0  0
  8 27  1  0  0  0  0
  8 28  1  0  0  0  0
  9 10  2  0  0  0  0
  9 11  1  0  0  0  0
 11 12  1  0  0  0  0
 11 29  1  0  0  0  0
 12 13  1  0  0  0  0
 12 30  1  0  0  0  0
 12 31  1  0  0  0  0
 13 14  1  0  0  0  0
 13 15  1  0  0  0  0
 13 32  1  0  0  0  0
 14 33  1  0  0  0  0
 14 34  1  0  0  0  0
 14 35  1  0  0  0  0
 15 20  1  0  0  0  0
 15 16  1  0  0  0  0
 15 44  1  0  0  0  0
 16 17  1  0  0  0  0
 16 36  1  0  0  0  0
 16 37  1  0  0  0  0
 17 18  1  0  0  0  0
 17 38  1  0  0  0  0
 17 39  1  0  0  0  0
 18 19  1  0  0  0  0
 19 20  1  0  0  0  0
 19 40  1  0  0  0  0
 19 41  1  0  0  0  0
 20 42  1  0  0  0  0
 20 43  1  0  0  0  0
M  CHG  1  15   1
M  END
> <s_m_source_file>
AV-unprocessed.smi

> <i_m_source_file_index>
2074

> <i_lp_mmshare_version>
43012

> <i_f3d_flags>
0

> <s_epik_input>
W0NIM11jMW5vYyhbQ0gzXSljMVtDSDJdQyg9TylbTkhdW0NIMl1bQ0BIXShbQ0gzXSlOMltDSDJdW0NIMl1PW0NIMl1bQ0gyXTI=

> <s_epik_cmdline>
J2VwaWtfcHl0aG9uJywgJy1waCcsICc3LjAnLCAnLXRuJywgJzgnLCAnLW1hJywgJzIwMCcsICctbWV0YWxfYmluZGluZycsICctaW1hZScsICc8aW5maWxlLm1hZT4nLCAnLW9tYWUnLCAnPG91dGZpbGUubWFlPic=

> <r_epik_Ionization_Penalty>
0.663207

> <r_epik_Ionization_Penalty_Charging>
0.663207

> <r_epik_Ionization_Penalty_Neutral>
1.0751e-07

> <r_epik_State_Penalty>
0.682743

> <r_epik_Charging_Adjusted_Penalty>
1.34595

> <i_epik_Tot_Q>
1

> <i_epik_Tot_abs_Q>
1

> <r_epik_Metal_State_Penalty>
0.682743

> <b_epik_Metal_Only>
0

> <s_lp_Force_Field>
OPLS_2005

> <r_lp_Energy>
15.5823

> <b_lp_Chiralities_Consistent>
1

> <s_lp_Variant>
AV-unprocessed.smi:2074-3

> <Gold.Version>
5.8.1

> <Gold.Id.Protein>
6NUR|6NUR_protein|mol2

> <Gold.PLP.Fitness>
35.0972

> <Gold.PLP.PLP>
-24.2612

> <Gold.PLP.part.hbond>
-2.9785

> <Gold.PLP.part.metal>
0.0000

> <Gold.PLP.part.buried>
-5.0805

> <Gold.PLP.part.nonpolar>
-16.6836

> <Gold.PLP.part.repulsive>
0.1605

> <Gold.PLP.ligand.clash>
0.0000

> <Gold.PLP.ligand.torsion>
0.3630

> <Gold.PLP.Chemscore.Hbond>
3.8400

> <Gold.PLP.Chemscore.CHOScore>
0.0000

> <Gold.PLP.Chemscore.Metal>
0.0000

> <Gold.Chemscore.Hbonds>
donor molecule, donor type, donor heavy atom, donor atom, acceptor molecule, acceptor atom, score
      L1  H    15    44       P1 10957  2.00
      P1  H  6931  6943       L1     3  0.85
      P1  H  6934  6947       L1     3  0.80

> <Gold.PLP.Chemscore.Internal.Correction>
0.0421

> <Gold.Rescore>
     Score         DG    S(hbond)    S(metal)    S(lipo)     H(rot)  DE(clash)    DE(int)     intcor
     15.55     -15.78       2.52        0.00      55.36       1.80       0.01       0.22       ----

> <Gold.Chemscore.Fitness>
15.5542

> <Gold.Chemscore.DG>
-15.7785

> <Gold.Chemscore.ZeroCoef>
-5.4800

> <Gold.Chemscore.Hbond>
2.5209

> <Gold.Chemscore.Metal>
0.0000

> <Gold.Chemscore.Lipo>
55.3570

> <Gold.Chemscore.Internal_Hbond>
0.0000

> <Gold.Chemscore.DEClash>
0.0082

> <Gold.Chemscore.DEInternal>
0.2160

> <Gold.Chemscore.Rot>
1.7961

> <Gold.Chemscore.Internal.Correction>
   9.000000E+99

> <Gold.Chemscore.Hbonds>
donor molecule, donor type, donor heavy atom, donor atom, acceptor molecule, acceptor atom, score
      L1  H    15    44       P1 10957  0.49
      P1  H  6931  6943       L1     3  0.67
      P1  H  6934  6947       L1     3  0.77

> <Gold.Chemscore.Hbond.Weighted>
-8.4197

> <Gold.Chemscore.Metal.Weighted>
-0.0000

> <Gold.Chemscore.Lipo.Weighted>
-6.4768

> <Gold.Chemscore.Internal_Hbond.Weighted>
0.0000

> <Gold.Chemscore.DEClash.Weighted>
0.0082

> <Gold.Chemscore.DEInternal.Weighted>
0.2160

> <Gold.Chemscore.Rot.Weighted>
4.5980

> <Gold.Chemscore.Internal.Correction.Weighted>
   9.000000E+99

> <Gold.Protein.RotatedTorsions>
[ 6907 6896 6895 6894 ] final  101.94 input  -60.11 | X-H torsion
[ 7974 7965 7964 7962 ] final   75.87 input  175.53 | X-H torsion
[ 8008 7997 7996 7995 ] final    8.24 input   59.86 | X-H torsion
[ 10167 10162 10161 10158 ] final   -7.00 input  -65.29 | X-H torsion
[ 10718 10713 10712 10709 ] final  -18.09 input   66.30 | X-H torsion
[ 10763 10752 10751 10750 ] final -125.29 input  -60.55 | X-H torsion
[ 11005 11000 10999 10996 ] final -108.14 input  -57.11 | X-H torsion

> <Gold.Protein.ActiveResidues>
 VAL166  LYS551  ARG553  GLY616  TRP617  ASP618  TYR619  PRO620  LYS621  CYS622 
 ASP623  PHE694  ASN695  SER759  ASP760  ASP761  ALA762  ILE779  LEU786  VAL792 
 PHE793  MET794  SER795  GLU796  ALA797  LYS798  CYS799  TRP800  GLU811  SER814 

> <Gold.Protein.RotatedAtoms>
  152.5337  134.0050  159.7912 H   0  0  0  0  0  0  0  0  0  0  0  0  # atno 6907 bound_to 6896
  151.0263  133.5823  159.2673 H   0  0  0  0  0  0  0  0  0  0  0  0  # atno 6908 bound_to 6896
  151.2844  135.0730  159.9235 H   0  0  0  0  0  0  0  0  0  0  0  0  # atno 6909 bound_to 6896
  145.7101  139.2611  143.1656 H   0  0  0  0  0  0  0  0  0  0  0  0  # atno 7974 bound_to 7965
  154.7642  140.2790  155.6189 H   0  0  0  0  0  0  0  0  0  0  0  0  # atno 8008 bound_to 7997
  156.2921  140.2654  156.2356 H   0  0  0  0  0  0  0  0  0  0  0  0  # atno 8009 bound_to 7997
  154.9979  140.0373  157.2337 H   0  0  0  0  0  0  0  0  0  0  0  0  # atno 8010 bound_to 7997
  140.7015  143.6130  150.8686 H   0  0  0  0  0  0  0  0  0  0  0  0  # atno 10167 bound_to 10162
  156.5644  130.4733  149.6391 H   0  0  0  0  0  0  0  0  0  0  0  0  # atno 10718 bound_to 10713
  154.8734  135.4035  154.3243 H   0  0  0  0  0  0  0  0  0  0  0  0  # atno 10763 bound_to 10752
  153.4067  135.7019  153.6393 H   0  0  0  0  0  0  0  0  0  0  0  0  # atno 10764 bound_to 10752
  153.5113  135.3706  155.2558 H   0  0  0  0  0  0  0  0  0  0  0  0  # atno 10765 bound_to 10752
  141.0917  133.9043  157.2060 H   0  0  0  0  0  0  0  0  0  0  0  0  # atno 11005 bound_to 11000
  146.0720  140.7858  142.9683 LP  0  0  0  0  0  0  0  0  0  0  0  0  # atno 17320 bound_to 7965
  144.6944  140.3357  143.7208 LP  0  0  0  0  0  0  0  0  0  0  0  0  # atno 17321 bound_to 7965
  139.9852  143.5907  152.2929 LP  0  0  0  0  0  0  0  0  0  0  0  0  # atno 17342 bound_to 10162
  139.6542  144.7661  151.2088 LP  0  0  0  0  0  0  0  0  0  0  0  0  # atno 17343 bound_to 10162
  156.2770  130.7049  151.1863 LP  0  0  0  0  0  0  0  0  0  0  0  0  # atno 17370 bound_to 10713
  157.7361  131.0565  150.5429 LP  0  0  0  0  0  0  0  0  0  0  0  0  # atno 17371 bound_to 10713
  139.9744  135.0118  156.9594 LP  0  0  0  0  0  0  0  0  0  0  0  0  # atno 17394 bound_to 11000
  140.5236  134.0883  155.7298 LP  0  0  0  0  0  0  0  0  0  0  0  0  # atno 17395 bound_to 11000

$$$$
