AV-unprocessed.smi:2190|AV-procd|sdf|8890|dock3
  -GOLD-   2272012 93D 1   1.00000     0.00000
 Structure written by MMmdl.
 47 49  0  0  0  0  0  0  0  0  2 V2000
  151.9789  145.2500  159.0061 C   0  0  0  0  0  0  0  0  0  0  0  0
  152.4151  143.8036  159.1184 C   0  0  0  0  0  0  0  0  0  0  0  0
  153.1159  143.3571  160.2556 C   0  0  0  0  0  0  0  0  0  0  0  0
  153.5191  142.0129  160.3490 C   0  0  0  0  0  0  0  0  0  0  0  0
  153.2243  141.1074  159.3086 C   0  0  0  0  0  0  0  0  0  0  0  0
  153.6676  139.6607  159.4242 C   0  0  0  0  0  0  0  0  0  0  0  0
  152.5191  141.5424  158.1627 C   0  0  0  0  0  0  0  0  0  0  0  0
  152.2642  140.6061  157.1827 O   0  0  0  0  0  0  0  0  0  0  0  0
  151.4719  140.9868  156.0664 C   0  0  0  0  0  0  0  0  0  0  0  0
  151.0613  139.7168  155.3080 C   0  0  2  0  0  0  0  0  0  0  0  0
  150.6076  140.0842  154.0208 O   0  0  0  0  0  0  0  0  0  0  0  0
  149.9687  138.9185  156.0474 C   0  0  0  0  0  0  0  0  0  0  0  0
  149.6233  137.6618  155.3652 N   0  0  0  0  0  0  0  0  0  0  0  0
  148.6389  137.4054  154.4564 C   0  0  0  0  0  0  0  0  0  0  0  0
  147.6410  138.3779  153.9187 C   0  0  0  0  0  0  0  0  0  0  0  0
  147.6334  138.4145  152.5088 O   0  0  0  0  0  0  0  0  0  0  0  0
  148.7366  136.0897  154.1156 N   0  3  0  0  0  0  0  0  0  0  0  0
  149.7891  135.4975  154.8147 C   0  0  0  0  0  0  0  0  0  0  0  0
  150.2694  134.1915  154.8018 C   0  0  0  0  0  0  0  0  0  0  0  0
  151.3666  133.9122  155.6427 C   0  0  0  0  0  0  0  0  0  0  0  0
  151.9438  134.9118  156.4523 C   0  0  0  0  0  0  0  0  0  0  0  0
  151.4499  136.2330  156.4548 C   0  0  0  0  0  0  0  0  0  0  0  0
  150.3642  136.5016  155.6209 C   0  0  0  0  0  0  0  0  0  0  0  0
  152.1181  142.9001  158.0783 C   0  0  0  0  0  0  0  0  0  0  0  0
  152.2961  145.8308  159.8726 H   0  0  0  0  0  0  0  0  0  0  0  0
  150.8928  145.3124  158.9336 H   0  0  0  0  0  0  0  0  0  0  0  0
  152.4097  145.7062  158.1144 H   0  0  0  0  0  0  0  0  0  0  0  0
  153.3479  144.0415  161.0585 H   0  0  0  0  0  0  0  0  0  0  0  0
  154.0570  141.6803  161.2245 H   0  0  0  0  0  0  0  0  0  0  0  0
  152.8138  138.9909  159.3144 H   0  0  0  0  0  0  0  0  0  0  0  0
  154.1320  139.4605  160.3904 H   0  0  0  0  0  0  0  0  0  0  0  0
  154.3917  139.4253  158.6437 H   0  0  0  0  0  0  0  0  0  0  0  0
  150.5847  141.5353  156.3883 H   0  0  0  0  0  0  0  0  0  0  0  0
  152.0552  141.6356  155.4107 H   0  0  0  0  0  0  0  0  0  0  0  0
  151.9432  139.0896  155.1738 H   0  0  0  0  0  0  0  0  0  0  0  0
  149.6634  140.1131  154.0326 H   0  0  0  0  0  0  0  0  0  0  0  0
  150.3145  138.6502  157.0464 H   0  0  0  0  0  0  0  0  0  0  0  0
  149.0681  139.5148  156.1932 H   0  0  0  0  0  0  0  0  0  0  0  0
  146.6454  138.1111  154.2740 H   0  0  0  0  0  0  0  0  0  0  0  0
  147.8604  139.3752  154.2997 H   0  0  0  0  0  0  0  0  0  0  0  0
  148.2733  137.7971  152.1883 H   0  0  0  0  0  0  0  0  0  0  0  0
  149.8291  133.4241  154.1823 H   0  0  0  0  0  0  0  0  0  0  0  0
  151.7734  132.9116  155.6672 H   0  0  0  0  0  0  0  0  0  0  0  0
  152.7828  134.6606  157.0848 H   0  0  0  0  0  0  0  0  0  0  0  0
  151.8997  136.9885  157.0815 H   0  0  0  0  0  0  0  0  0  0  0  0
  151.5814  143.2742  157.2197 H   0  0  0  0  0  0  0  0  0  0  0  0
  148.1265  135.6336  153.4494 H   0  0  0  0  0  0  0  0  0  0  0  0
  1  2  1  0  0  0  0
  1 25  1  0  0  0  0
  1 26  1  0  0  0  0
  1 27  1  0  0  0  0
  2 24  1  0  0  0  0
  2  3  2  0  0  0  0
  3  4  1  0  0  0  0
  3 28  1  0  0  0  0
  4  5  2  0  0  0  0
  4 29  1  0  0  0  0
  5  6  1  0  0  0  0
  5  7  1  0  0  0  0
  6 30  1  0  0  0  0
  6 31  1  0  0  0  0
  6 32  1  0  0  0  0
  7  8  1  0  0  0  0
  7 24  2  0  0  0  0
  8  9  1  0  0  0  0
  9 10  1  0  0  0  0
  9 33  1  0  0  0  0
  9 34  1  0  0  0  0
 10 11  1  0  0  0  0
 10 12  1  0  0  0  0
 10 35  1  0  0  0  0
 11 36  1  0  0  0  0
 12 13  1  0  0  0  0
 12 37  1  0  0  0  0
 12 38  1  0  0  0  0
 13 23  1  0  0  0  0
 13 14  1  0  0  0  0
 14 15  1  0  0  0  0
 14 17  2  0  0  0  0
 15 16  1  0  0  0  0
 15 39  1  0  0  0  0
 15 40  1  0  0  0  0
 16 41  1  0  0  0  0
 17 18  1  0  0  0  0
 17 47  1  0  0  0  0
 18 23  2  0  0  0  0
 18 19  1  0  0  0  0
 19 20  2  0  0  0  0
 19 42  1  0  0  0  0
 20 21  1  0  0  0  0
 20 43  1  0  0  0  0
 21 22  2  0  0  0  0
 21 44  1  0  0  0  0
 22 23  1  0  0  0  0
 22 45  1  0  0  0  0
 24 46  1  0  0  0  0
M  CHG  1  17   1
M  END
> <s_m_source_file>
AV-unprocessed.smi

> <i_m_source_file_index>
2190

> <i_lp_mmshare_version>
43012

> <i_f3d_flags>
0

> <s_epik_input>
W0NIM11jMVtjSF1bY0hdYyhbQ0gzXSljKFtjSF0xKU9bQ0gyXVtDQEhdKFtPSF0pW0NIMl1uKGMobjIpW0NIMl1bT0hdKWMoYzIzKVtjSF1bY0hdW2NIXVtjSF0z

> <s_epik_cmdline>
J2VwaWtfcHl0aG9uJywgJy1waCcsICc3LjAnLCAnLXRuJywgJzgnLCAnLW1hJywgJzIwMCcsICctbWV0YWxfYmluZGluZycsICctaW1hZScsICc8aW5maWxlLm1hZT4nLCAnLW9tYWUnLCAnPG91dGZpbGUubWFlPic=

> <r_lp_tautomer_probability>
1

> <r_epik_Ionization_Penalty>
1.43125

> <r_epik_Ionization_Penalty_Charging>
1.43039

> <r_epik_Ionization_Penalty_Neutral>
0.000858184

> <r_epik_State_Penalty>
1.51493

> <r_epik_Charging_Adjusted_Penalty>
2.94531

> <i_epik_Tot_Q>
1

> <i_epik_Tot_abs_Q>
1

> <r_epik_Metal_State_Penalty>
5.5599

> <b_epik_Metal_Only>
0

> <s_lp_Force_Field>
OPLS_2005

> <r_lp_Energy>
17.5717

> <b_lp_Chiralities_Consistent>
1

> <s_lp_Variant>
AV-unprocessed.smi:2190-3

> <Gold.Version>
5.8.1

> <Gold.Id.Protein>
6NUR|6NUR_protein|mol2

> <Gold.PLP.Fitness>
49.3152

> <Gold.PLP.PLP>
-44.3949

> <Gold.PLP.part.hbond>
-4.1453

> <Gold.PLP.part.metal>
0.0000

> <Gold.PLP.part.buried>
-4.0424

> <Gold.PLP.part.nonpolar>
-35.9049

> <Gold.PLP.part.repulsive>
0.0000

> <Gold.PLP.ligand.clash>
0.0000

> <Gold.PLP.ligand.torsion>
0.5839

> <Gold.PLP.Chemscore.Hbond>
1.9913

> <Gold.PLP.Chemscore.CHOScore>
0.0000

> <Gold.PLP.Chemscore.Metal>
0.0000

> <Gold.Chemscore.Hbonds>
donor molecule, donor type, donor heavy atom, donor atom, acceptor molecule, acceptor atom, score
      L1  H    16    41       P1  7948  1.00
      P1  H  7989  7998       L1    11  0.63
      P1  H  7997  8009       L1     8  0.21

> <Gold.PLP.Chemscore.Internal.Correction>
0.1144

> <Gold.Rescore>
     Score         DG    S(hbond)    S(metal)    S(lipo)     H(rot)  DE(clash)    DE(int)     intcor
     18.40     -19.30       2.08        0.00     125.27       3.05       0.15       0.75       ----

> <Gold.Chemscore.Fitness>
18.3967

> <Gold.Chemscore.DG>
-19.2968

> <Gold.Chemscore.ZeroCoef>
-5.4800

> <Gold.Chemscore.Hbond>
2.0844

> <Gold.Chemscore.Metal>
0.0000

> <Gold.Chemscore.Lipo>
125.2708

> <Gold.Chemscore.Internal_Hbond>
0.0000

> <Gold.Chemscore.DEClash>
0.1474

> <Gold.Chemscore.DEInternal>
0.7527

> <Gold.Chemscore.Rot>
3.0476

> <Gold.Chemscore.Internal.Correction>
   9.000000E+99

> <Gold.Chemscore.Hbonds>
donor molecule, donor type, donor heavy atom, donor atom, acceptor molecule, acceptor atom, score
      L1  H    16    41       P1  7948  0.99
      L1  H    17    47       P1  7948  0.05
      P1  H  7989  7998       L1    11  0.35
      P1  H  7997  8009       L1     8  0.02

> <Gold.Chemscore.Hbond.Weighted>
-6.9619

> <Gold.Chemscore.Metal.Weighted>
-0.0000

> <Gold.Chemscore.Lipo.Weighted>
-14.6567

> <Gold.Chemscore.Internal_Hbond.Weighted>
0.0000

> <Gold.Chemscore.DEClash.Weighted>
0.1474

> <Gold.Chemscore.DEInternal.Weighted>
0.7527

> <Gold.Chemscore.Rot.Weighted>
7.8018

> <Gold.Chemscore.Internal.Correction.Weighted>
   9.000000E+99

> <Gold.Protein.RotatedTorsions>
[ 6907 6896 6895 6894 ] final -129.09 input  -60.11 | X-H torsion
[ 7974 7965 7964 7962 ] final   24.59 input  175.53 | X-H torsion
[ 8008 7997 7996 7995 ] final  165.97 input   59.86 | X-H torsion
[ 10167 10162 10161 10158 ] final -132.41 input  -65.29 | X-H torsion
[ 10718 10713 10712 10709 ] final   79.92 input   66.30 | X-H torsion
[ 10763 10752 10751 10750 ] final  115.29 input  -60.55 | X-H torsion
[ 11005 11000 10999 10996 ] final   50.43 input  -57.11 | X-H torsion

> <Gold.Protein.ActiveResidues>
 VAL166  LYS551  ARG553  GLY616  TRP617  ASP618  TYR619  PRO620  LYS621  CYS622 
 ASP623  PHE694  ASN695  SER759  ASP760  ASP761  ALA762  ILE779  LEU786  VAL792 
 PHE793  MET794  SER795  GLU796  ALA797  LYS798  CYS799  TRP800  GLU811  SER814 

> <Gold.Protein.RotatedAtoms>
  150.9249  133.6836  159.2823 H   0  0  0  0  0  0  0  0  0  0  0  0  # atno 6907 bound_to 6896
  151.4277  135.1004  159.9643 H   0  0  0  0  0  0  0  0  0  0  0  0  # atno 6908 bound_to 6896
  152.4998  133.8686  159.7342 H   0  0  0  0  0  0  0  0  0  0  0  0  # atno 6909 bound_to 6896
  146.1930  139.7583  142.8818 H   0  0  0  0  0  0  0  0  0  0  0  0  # atno 7974 bound_to 7965
  156.1757  140.1656  156.8367 H   0  0  0  0  0  0  0  0  0  0  0  0  # atno 8008 bound_to 7997
  154.5304  140.0758  156.8369 H   0  0  0  0  0  0  0  0  0  0  0  0  # atno 8009 bound_to 7997
  155.3418  140.3385  155.4241 H   0  0  0  0  0  0  0  0  0  0  0  0  # atno 8010 bound_to 7997
  139.9089  143.6518  152.2579 H   0  0  0  0  0  0  0  0  0  0  0  0  # atno 10167 bound_to 10162
  157.6791  130.9936  150.2003 H   0  0  0  0  0  0  0  0  0  0  0  0  # atno 10718 bound_to 10713
  153.5200  135.3600  155.2627 H   0  0  0  0  0  0  0  0  0  0  0  0  # atno 10763 bound_to 10752
  154.8736  135.4043  154.3270 H   0  0  0  0  0  0  0  0  0  0  0  0  # atno 10764 bound_to 10752
  153.3939  135.7072  153.6542 H   0  0  0  0  0  0  0  0  0  0  0  0  # atno 10765 bound_to 10752
  140.1018  134.5071  155.8756 H   0  0  0  0  0  0  0  0  0  0  0  0  # atno 11005 bound_to 11000
  145.3733  141.0346  143.3219 LP  0  0  0  0  0  0  0  0  0  0  0  0  # atno 17320 bound_to 7965
  144.8524  139.5302  143.6850 LP  0  0  0  0  0  0  0  0  0  0  0  0  # atno 17321 bound_to 7965
  139.6960  144.7641  151.1356 LP  0  0  0  0  0  0  0  0  0  0  0  0  # atno 17342 bound_to 10162
  140.7690  143.5523  150.9190 LP  0  0  0  0  0  0  0  0  0  0  0  0  # atno 17343 bound_to 10162
  156.2696  130.3720  149.8046 LP  0  0  0  0  0  0  0  0  0  0  0  0  # atno 17370 bound_to 10713
  156.5767  130.8448  151.3371 LP  0  0  0  0  0  0  0  0  0  0  0  0  # atno 17371 bound_to 10713
  141.2107  133.6698  156.6532 LP  0  0  0  0  0  0  0  0  0  0  0  0  # atno 17394 bound_to 11000
  140.3210  134.8008  157.4252 LP  0  0  0  0  0  0  0  0  0  0  0  0  # atno 17395 bound_to 11000

$$$$
