AV-unprocessed.smi:2559|AV-procd|sdf|10034|dock7
  -GOLD-   2272014 83D 1   1.00000     0.00000
 Structure written by MMmdl.
 44 46  0  0  0  0  0  0  0  0  1 V2000
  153.3060  137.6749  159.1874 C   0  0  0  0  0  0  0  0  0  0  0  0
  152.7113  138.1145  157.9234 N   0  0  0  0  0  0  0  0  0  0  0  0
  152.6019  137.2361  156.8765 C   0  0  0  0  0  0  0  0  0  0  0  0
  152.9944  136.0717  156.9503 O   0  0  0  0  0  0  0  0  0  0  0  0
  152.0313  137.6937  155.7212 N   0  0  0  0  0  0  0  0  0  0  0  0
  151.5529  138.9373  155.4738 C   0  0  0  0  0  0  0  0  0  0  0  0
  151.0377  139.2580  154.4056 O   0  0  0  0  0  0  0  0  0  0  0  0
  151.7103  139.8549  156.6129 C   0  0  0  0  0  0  0  0  0  0  0  0
  152.2580  139.4581  157.7904 C   0  0  0  0  0  0  0  0  0  0  0  0
  152.2601  140.4957  158.7088 N   0  0  0  0  0  0  0  0  0  0  0  0
  151.7204  141.5079  158.0250 C   0  0  0  0  0  0  0  0  0  0  0  0
  151.5152  142.7740  158.5762 N   0  0  0  0  0  0  0  0  0  0  0  0
  150.8753  143.0593  159.8612 C   0  0  0  0  0  0  0  0  0  0  0  0
  151.7123  144.0324  160.7098 C   0  0  0  0  0  0  0  0  0  0  0  0
  151.9447  145.3434  159.9468 C   0  0  0  0  0  0  0  0  0  0  0  0
  152.5127  145.0456  158.5522 C   0  0  0  0  0  0  0  0  0  0  0  0
  151.6383  144.0159  157.8140 C   0  0  0  0  0  0  0  0  0  0  0  0
  151.3418  141.1962  156.7545 N   0  0  0  0  0  0  0  0  0  0  0  0
  150.6543  142.0427  155.7790 C   0  0  0  0  0  0  0  0  0  0  0  0
  149.3245  141.4228  155.3010 C   0  0  2  0  0  0  0  0  0  0  0  0
  148.7607  142.1672  154.2388 O   0  0  0  0  0  0  0  0  0  0  0  0
  148.2793  141.2479  156.4186 C   0  0  0  0  0  0  0  0  0  0  0  0
  147.9409  142.4819  157.0189 O   0  0  0  0  0  0  0  0  0  0  0  0
  151.9544  137.0273  154.9667 H   0  0  0  0  0  0  0  0  0  0  0  0
  152.7764  136.8056  159.5807 H   0  0  0  0  0  0  0  0  0  0  0  0
  153.2756  138.4462  159.9566 H   0  0  0  0  0  0  0  0  0  0  0  0
  154.3511  137.3990  159.0403 H   0  0  0  0  0  0  0  0  0  0  0  0
  149.8921  143.4923  159.6716 H   0  0  0  0  0  0  0  0  0  0  0  0
  150.6846  142.1357  160.4062 H   0  0  0  0  0  0  0  0  0  0  0  0
  151.2078  144.2347  161.6547 H   0  0  0  0  0  0  0  0  0  0  0  0
  152.6707  143.5778  160.9607 H   0  0  0  0  0  0  0  0  0  0  0  0
  151.0003  145.8803  159.8484 H   0  0  0  0  0  0  0  0  0  0  0  0
  152.6196  145.9946  160.5030 H   0  0  0  0  0  0  0  0  0  0  0  0
  152.5788  145.9660  157.9714 H   0  0  0  0  0  0  0  0  0  0  0  0
  153.5299  144.6628  158.6438 H   0  0  0  0  0  0  0  0  0  0  0  0
  152.0757  143.8030  156.8381 H   0  0  0  0  0  0  0  0  0  0  0  0
  150.6448  144.4251  157.6264 H   0  0  0  0  0  0  0  0  0  0  0  0
  150.4710  143.0218  156.2114 H   0  0  0  0  0  0  0  0  0  0  0  0
  151.3137  142.2405  154.9372 H   0  0  0  0  0  0  0  0  0  0  0  0
  149.5339  140.4328  154.8957 H   0  0  0  0  0  0  0  0  0  0  0  0
  148.6440  143.0596  154.5263 H   0  0  0  0  0  0  0  0  0  0  0  0
  147.3768  140.7724  156.0330 H   0  0  0  0  0  0  0  0  0  0  0  0
  148.6733  140.5927  157.1958 H   0  0  0  0  0  0  0  0  0  0  0  0
  148.2749  143.1811  156.4779 H   0  0  0  0  0  0  0  0  0  0  0  0
  1  2  1  0  0  0  0
  1 25  1  0  0  0  0
  1 26  1  0  0  0  0
  1 27  1  0  0  0  0
  2  9  1  0  0  0  0
  2  3  1  0  0  0  0
  3  4  2  0  0  0  0
  3  5  1  0  0  0  0
  5 24  1  0  0  0  0
  5  6  1  0  0  0  0
  6  7  2  0  0  0  0
  6  8  1  0  0  0  0
  8 18  1  0  0  0  0
  8  9  2  0  0  0  0
  9 10  1  0  0  0  0
 10 11  2  0  0  0  0
 11 12  1  0  0  0  0
 11 18  1  0  0  0  0
 12 17  1  0  0  0  0
 12 13  1  0  0  0  0
 13 14  1  0  0  0  0
 13 28  1  0  0  0  0
 13 29  1  0  0  0  0
 14 15  1  0  0  0  0
 14 30  1  0  0  0  0
 14 31  1  0  0  0  0
 15 16  1  0  0  0  0
 15 32  1  0  0  0  0
 15 33  1  0  0  0  0
 16 17  1  0  0  0  0
 16 34  1  0  0  0  0
 16 35  1  0  0  0  0
 17 36  1  0  0  0  0
 17 37  1  0  0  0  0
 18 19  1  0  0  0  0
 19 20  1  0  0  0  0
 19 38  1  0  0  0  0
 19 39  1  0  0  0  0
 20 21  1  0  0  0  0
 20 22  1  0  0  0  0
 20 40  1  0  0  0  0
 21 41  1  0  0  0  0
 22 23  1  0  0  0  0
 22 42  1  0  0  0  0
 22 43  1  0  0  0  0
 23 44  1  0  0  0  0
M  END
> <s_m_source_file>
AV-unprocessed.smi

> <i_m_source_file_index>
2559

> <i_lp_mmshare_version>
43012

> <i_f3d_flags>
0

> <s_epik_input>
Tz1jMVtuSF1jKD1PKW4oW0NIM10pYyhjMTIpbmMobjJbQ0gyXVtDQEhdKFtPSF0pW0NIMl1bT0hdKU4zW0NIMl1bQ0gyXVtDSDJdW0NIMl1bQ0gyXTM=

> <s_epik_cmdline>
J2VwaWtfcHl0aG9uJywgJy1waCcsICc3LjAnLCAnLXRuJywgJzgnLCAnLW1hJywgJzIwMCcsICctbWV0YWxfYmluZGluZycsICctaW1hZScsICc8aW5maWxlLm1hZT4nLCAnLW9tYWUnLCAnPG91dGZpbGUubWFlPic=

> <r_lp_tautomer_probability>
1

> <r_epik_Ionization_Penalty>
0.0023969

> <r_epik_Ionization_Penalty_Charging>
9.35512e-05

> <r_epik_Ionization_Penalty_Neutral>
0.00230335

> <r_epik_State_Penalty>
-0

> <r_epik_Charging_Adjusted_Penalty>
9.35512e-05

> <i_epik_Tot_Q>
0

> <i_epik_Tot_abs_Q>
0

> <r_epik_Metal_State_Penalty>
0.0757518

> <b_epik_Metal_Only>
0

> <s_lp_Force_Field>
OPLS_2005

> <r_lp_Energy>
44.2112

> <b_lp_Chiralities_Consistent>
1

> <s_lp_Variant>
AV-unprocessed.smi:2559-1

> <Gold.Version>
5.8.1

> <Gold.Id.Protein>
6NUR|6NUR_protein|mol2

> <Gold.PLP.Fitness>
51.7012

> <Gold.PLP.PLP>
-39.9764

> <Gold.PLP.part.hbond>
-5.0000

> <Gold.PLP.part.metal>
0.0000

> <Gold.PLP.part.buried>
-4.1986

> <Gold.PLP.part.nonpolar>
-31.0424

> <Gold.PLP.part.repulsive>
0.2775

> <Gold.PLP.ligand.clash>
0.0000

> <Gold.PLP.ligand.torsion>
0.7396

> <Gold.PLP.Chemscore.Hbond>
4.2260

> <Gold.PLP.Chemscore.CHOScore>
0.0000

> <Gold.PLP.Chemscore.Metal>
0.0000

> <Gold.Chemscore.Hbonds>
donor molecule, donor type, donor heavy atom, donor atom, acceptor molecule, acceptor atom, score
      L1  H    21    41       P1  8028  1.00
      L1  H    23    44       P1  8028  1.00
      P1  H  7989  7998       L1     7  1.00
      P1  H  8011  8017       L1    21  0.20
      P1  H 10752 10764       L1     4  1.00

> <Gold.PLP.Chemscore.Internal.Correction>
0.5259

> <Gold.Rescore>
     Score         DG    S(hbond)    S(metal)    S(lipo)     H(rot)  DE(clash)    DE(int)     intcor
     15.98     -19.73       3.45        0.00      88.33       2.97       0.97       2.78       ----

> <Gold.Chemscore.Fitness>
15.9806

> <Gold.Chemscore.DG>
-19.7292

> <Gold.Chemscore.ZeroCoef>
-5.4800

> <Gold.Chemscore.Hbond>
3.4474

> <Gold.Chemscore.Metal>
0.0000

> <Gold.Chemscore.Lipo>
88.3264

> <Gold.Chemscore.Internal_Hbond>
0.0000

> <Gold.Chemscore.DEClash>
0.9692

> <Gold.Chemscore.DEInternal>
2.7794

> <Gold.Chemscore.Rot>
2.9685

> <Gold.Chemscore.Internal.Correction>
   9.000000E+99

> <Gold.Chemscore.Hbonds>
donor molecule, donor type, donor heavy atom, donor atom, acceptor molecule, acceptor atom, score
      L1  H    21    41       P1  8028  0.96
      L1  H    23    44       P1  8028  0.50
      P1  H  7989  7998       L1     7  0.97
      P1  H  8011  8017       L1    21  0.07
      P1  H 10752 10764       L1     4  0.92

> <Gold.Chemscore.Hbond.Weighted>
-11.5144

> <Gold.Chemscore.Metal.Weighted>
-0.0000

> <Gold.Chemscore.Lipo.Weighted>
-10.3342

> <Gold.Chemscore.Internal_Hbond.Weighted>
0.0000

> <Gold.Chemscore.DEClash.Weighted>
0.9692

> <Gold.Chemscore.DEInternal.Weighted>
2.7794

> <Gold.Chemscore.Rot.Weighted>
7.5994

> <Gold.Chemscore.Internal.Correction.Weighted>
   9.000000E+99

> <Gold.Protein.RotatedTorsions>
[ 6907 6896 6895 6894 ] final   74.30 input  -60.11 | X-H torsion
[ 7974 7965 7964 7962 ] final   32.74 input  175.53 | X-H torsion
[ 8008 7997 7996 7995 ] final -143.72 input   59.86 | X-H torsion
[ 10167 10162 10161 10158 ] final  -94.72 input  -65.29 | X-H torsion
[ 10718 10713 10712 10709 ] final -154.66 input   66.30 | X-H torsion
[ 10763 10752 10751 10750 ] final   13.74 input  -60.55 | X-H torsion
[ 11005 11000 10999 10996 ] final -162.72 input  -57.11 | X-H torsion

> <Gold.Protein.ActiveResidues>
 VAL166  LYS551  ARG553  GLY616  TRP617  ASP618  TYR619  PRO620  LYS621  CYS622 
 ASP623  PHE694  ASN695  SER759  ASP760  ASP761  ALA762  ILE779  LEU786  VAL792 
 PHE793  MET794  SER795  GLU796  ALA797  LYS798  CYS799  TRP800  GLU811  SER814 

> <Gold.Protein.RotatedAtoms>
  152.4969  134.4292  159.9506 H   0  0  0  0  0  0  0  0  0  0  0  0  # atno 6907 bound_to 6896
  151.4269  133.3675  159.2771 H   0  0  0  0  0  0  0  0  0  0  0  0  # atno 6908 bound_to 6896
  150.9182  134.8623  159.7531 H   0  0  0  0  0  0  0  0  0  0  0  0  # atno 6909 bound_to 6896
  146.1466  139.6487  142.9127 H   0  0  0  0  0  0  0  0  0  0  0  0  # atno 7974 bound_to 7965
  155.5153  140.0587  157.2916 H   0  0  0  0  0  0  0  0  0  0  0  0  # atno 8008 bound_to 7997
  154.4537  140.1962  156.0390 H   0  0  0  0  0  0  0  0  0  0  0  0  # atno 8009 bound_to 7997
  156.0756  140.3254  155.7634 H   0  0  0  0  0  0  0  0  0  0  0  0  # atno 8010 bound_to 7997
  140.3115  143.3102  152.0143 H   0  0  0  0  0  0  0  0  0  0  0  0  # atno 10167 bound_to 10162
  156.5023  130.8397  151.2614 H   0  0  0  0  0  0  0  0  0  0  0  0  # atno 10718 bound_to 10713
  153.1691  135.6809  153.8633 H   0  0  0  0  0  0  0  0  0  0  0  0  # atno 10763 bound_to 10752
  153.8002  135.3157  155.3390 H   0  0  0  0  0  0  0  0  0  0  0  0  # atno 10764 bound_to 10752
  154.7986  135.4792  154.0312 H   0  0  0  0  0  0  0  0  0  0  0  0  # atno 10765 bound_to 10752
  140.6062  134.4897  157.5210 H   0  0  0  0  0  0  0  0  0  0  0  0  # atno 11005 bound_to 11000
  145.4922  141.0438  143.2587 LP  0  0  0  0  0  0  0  0  0  0  0  0  # atno 17320 bound_to 7965
  144.7854  139.6438  143.7136 LP  0  0  0  0  0  0  0  0  0  0  0  0  # atno 17321 bound_to 7965
  139.4893  144.6381  151.6934 LP  0  0  0  0  0  0  0  0  0  0  0  0  # atno 17342 bound_to 10162
  140.5564  144.0341  150.6149 LP  0  0  0  0  0  0  0  0  0  0  0  0  # atno 17343 bound_to 10162
  157.7461  130.9977  150.2827 LP  0  0  0  0  0  0  0  0  0  0  0  0  # atno 17370 bound_to 10713
  156.3320  130.3802  149.7482 LP  0  0  0  0  0  0  0  0  0  0  0  0  # atno 17371 bound_to 10713
  139.9211  134.8146  156.1208 LP  0  0  0  0  0  0  0  0  0  0  0  0  # atno 17394 bound_to 11000
  141.0839  133.6742  156.2395 LP  0  0  0  0  0  0  0  0  0  0  0  0  # atno 17395 bound_to 11000

$$$$
