AV-unprocessed.smi:184|AV-procd|sdf|1461|dock5
  -GOLD-   2262019273D 1   1.00000     0.00000
 Structure written by MMmdl.
 54 58  0  0  0  0  0  0  0  0  1 V2000
  150.5655  139.7936  154.5875 O   0  0  0  0  0  0  0  0  0  0  0  0
  149.3586  139.7539  154.3606 C   0  0  0  0  0  0  0  0  0  0  0  0
  148.6235  138.4018  154.4070 C   0  0  0  0  0  0  0  0  0  0  0  0
  147.2019  138.4751  154.0304 N   0  0  0  0  0  0  0  0  0  0  0  0
  146.4925  137.3175  153.9848 C   0  0  0  0  0  0  0  0  0  0  0  0
  146.2577  136.6313  155.1348 N   0  0  0  0  0  0  0  0  0  0  0  0
  145.5552  135.4952  155.1137 C   0  0  0  0  0  0  0  0  0  0  0  0
  145.0083  134.8726  154.0687 N   0  0  0  0  0  0  0  0  0  0  0  0
  145.2482  135.5483  152.9093 C   0  0  0  0  0  0  0  0  0  0  0  0
  145.9758  136.7653  152.7776 C   0  0  0  0  0  0  0  0  0  0  0  0
  146.0292  137.1382  151.4393 N   0  0  0  0  0  0  0  0  0  0  0  0
  145.3589  136.2058  150.8197 C   0  0  0  0  0  0  0  0  0  0  0  0
  144.8472  135.2151  151.6269 N   0  0  0  0  0  0  0  0  0  0  0  0
  144.0693  134.0602  151.2019 C   0  0  0  0  0  0  0  0  0  0  0  0
  144.8199  133.1150  150.2241 C   0  0  0  0  0  0  0  0  0  0  0  0
  144.4040  133.4426  148.9108 O   0  0  0  0  0  0  0  0  0  0  0  0
  146.3462  133.3242  150.2858 C   0  0  0  0  0  0  0  0  0  0  0  0
  146.9551  132.7007  151.5551 C   0  0  0  0  0  0  0  0  0  0  0  0
  146.6213  131.3188  151.6275 O   0  0  0  0  0  0  0  0  0  0  0  0
  145.2193  131.0880  151.7128 C   0  0  0  0  0  0  0  0  0  0  0  0
  144.5242  131.6158  150.4454 C   0  0  0  0  0  0  0  0  0  0  0  0
  146.4673  139.7008  154.3495 C   0  0  1  0  0  0  0  0  0  0  0  0
  146.2421  139.8431  155.8749 C   0  0  0  0  0  0  0  0  0  0  0  0
  145.5871  141.1849  156.2328 C   0  0  0  0  0  0  0  0  0  0  0  0
  146.4163  142.3607  155.6960 C   0  0  0  0  0  0  0  0  0  0  0  0
  146.5997  142.2495  154.1742 C   0  0  0  0  0  0  0  0  0  0  0  0
  147.2338  140.9077  153.7579 C   0  0  1  0  0  0  0  0  0  0  0  0
  148.6582  140.8683  154.0892 N   0  0  0  0  0  0  0  0  0  0  0  0
  149.1362  137.7071  153.7403 H   0  0  0  0  0  0  0  0  0  0  0  0
  148.7228  138.0102  155.4204 H   0  0  0  0  0  0  0  0  0  0  0  0
  145.4099  135.0168  156.0710 H   0  0  0  0  0  0  0  0  0  0  0  0
  145.2161  136.2156  149.7488 H   0  0  0  0  0  0  0  0  0  0  0  0
  143.7691  133.5116  152.0960 H   0  0  0  0  0  0  0  0  0  0  0  0
  143.1449  134.4249  150.7549 H   0  0  0  0  0  0  0  0  0  0  0  0
  145.1065  133.9059  148.4806 H   0  0  0  0  0  0  0  0  0  0  0  0
  146.8166  132.8565  149.4193 H   0  0  0  0  0  0  0  0  0  0  0  0
  146.5925  134.3853  150.2305 H   0  0  0  0  0  0  0  0  0  0  0  0
  148.0406  132.7952  151.5308 H   0  0  0  0  0  0  0  0  0  0  0  0
  146.6176  133.2160  152.4547 H   0  0  0  0  0  0  0  0  0  0  0  0
  145.0470  130.0164  151.8122 H   0  0  0  0  0  0  0  0  0  0  0  0
  144.8190  131.5556  152.6124 H   0  0  0  0  0  0  0  0  0  0  0  0
  143.4526  131.4215  150.4892 H   0  0  0  0  0  0  0  0  0  0  0  0
  144.8949  131.0422  149.5944 H   0  0  0  0  0  0  0  0  0  0  0  0
  145.4843  139.6891  153.8803 H   0  0  0  0  0  0  0  0  0  0  0  0
  145.6191  139.0244  156.2370 H   0  0  0  0  0  0  0  0  0  0  0  0
  147.1885  139.7627  156.4105 H   0  0  0  0  0  0  0  0  0  0  0  0
  144.5792  141.2243  155.8179 H   0  0  0  0  0  0  0  0  0  0  0  0
  145.4807  141.2686  157.3147 H   0  0  0  0  0  0  0  0  0  0  0  0
  145.9269  143.3033  155.9422 H   0  0  0  0  0  0  0  0  0  0  0  0
  147.3899  142.3806  156.1875 H   0  0  0  0  0  0  0  0  0  0  0  0
  145.6256  142.3471  153.6931 H   0  0  0  0  0  0  0  0  0  0  0  0
  147.2018  143.0817  153.8077 H   0  0  0  0  0  0  0  0  0  0  0  0
  147.1846  140.8401  152.6699 H   0  0  0  0  0  0  0  0  0  0  0  0
  149.1549  141.7473  154.0803 H   0  0  0  0  0  0  0  0  0  0  0  0
  1  2  2  0  0  0  0
  2 28  1  0  0  0  0
  2  3  1  0  0  0  0
  3  4  1  0  0  0  0
  3 29  1  0  0  0  0
  3 30  1  0  0  0  0
  4  5  1  0  0  0  0
  4 22  1  0  0  0  0
  5 10  1  0  0  0  0
  5  6  2  0  0  0  0
  6  7  1  0  0  0  0
  7  8  2  0  0  0  0
  7 31  1  0  0  0  0
  8  9  1  0  0  0  0
  9 13  1  0  0  0  0
  9 10  2  0  0  0  0
 10 11  1  0  0  0  0
 11 12  2  0  0  0  0
 12 13  1  0  0  0  0
 12 32  1  0  0  0  0
 13 14  1  0  0  0  0
 14 15  1  0  0  0  0
 14 33  1  0  0  0  0
 14 34  1  0  0  0  0
 15 21  1  0  0  0  0
 15 16  1  0  0  0  0
 15 17  1  0  0  0  0
 16 35  1  0  0  0  0
 17 18  1  0  0  0  0
 17 36  1  0  0  0  0
 17 37  1  0  0  0  0
 18 19  1  0  0  0  0
 18 38  1  0  0  0  0
 18 39  1  0  0  0  0
 19 20  1  0  0  0  0
 20 21  1  0  0  0  0
 20 40  1  0  0  0  0
 20 41  1  0  0  0  0
 21 42  1  0  0  0  0
 21 43  1  0  0  0  0
 22 27  1  0  0  0  0
 22 23  1  0  0  0  0
 22 44  1  0  0  0  0
 23 24  1  0  0  0  0
 23 45  1  0  0  0  0
 23 46  1  0  0  0  0
 24 25  1  0  0  0  0
 24 47  1  0  0  0  0
 24 48  1  0  0  0  0
 25 26  1  0  0  0  0
 25 49  1  0  0  0  0
 25 50  1  0  0  0  0
 26 27  1  0  0  0  0
 26 51  1  0  0  0  0
 26 52  1  0  0  0  0
 27 28  1  0  0  0  0
 27 53  1  0  0  0  0
 28 54  1  0  0  0  0
M  END
> <s_m_source_file>
AV-unprocessed.smi

> <i_m_source_file_index>
184

> <i_lp_mmshare_version>
43012

> <i_f3d_flags>
0

> <s_epik_input>
W0NIMl0xW0NIMl1bQ0gyXVtDSDJdW0NASF0oW0NASF0xMilbTkhdQyg9TylbQ0gyXU4yYyhuW2NIXW4zKWMoYzM0KW5bY0hdbjRbQ0gyXUM1KFtPSF0pW0NIMl1bQ0gyXU9bQ0gyXVtDSDJdNQ==

> <s_epik_cmdline>
J2VwaWtfcHl0aG9uJywgJy1waCcsICc3LjAnLCAnLXRuJywgJzgnLCAnLW1hJywgJzIwMCcsICctbWV0YWxfYmluZGluZycsICctaW1hZScsICc8aW5maWxlLm1hZT4nLCAnLW9tYWUnLCAnPG91dGZpbGUubWFlPic=

> <r_lp_tautomer_probability>
1

> <r_epik_Ionization_Penalty>
0.000822761

> <r_epik_Ionization_Penalty_Charging>
0

> <r_epik_Ionization_Penalty_Neutral>
0.000822761

> <r_epik_State_Penalty>
0.000403048

> <r_epik_Charging_Adjusted_Penalty>
0.000403048

> <i_epik_Tot_Q>
0

> <i_epik_Tot_abs_Q>
0

> <r_epik_Metal_State_Penalty>
-0

> <b_epik_Metal_Only>
0

> <s_lp_Force_Field>
OPLS_2005

> <r_lp_Energy>
37.4229

> <b_lp_Chiralities_Consistent>
1

> <s_lp_Variant>
AV-unprocessed.smi:184-1

> <Gold.Version>
5.8.1

> <Gold.Id.Protein>
6NUR|6NUR_protein|mol2

> <Gold.PLP.Fitness>
44.0583

> <Gold.PLP.PLP>
-39.1976

> <Gold.PLP.part.hbond>
-3.0000

> <Gold.PLP.part.metal>
0.0000

> <Gold.PLP.part.buried>
-5.6722

> <Gold.PLP.part.nonpolar>
-32.4057

> <Gold.PLP.part.repulsive>
2.4838

> <Gold.PLP.ligand.clash>
0.0000

> <Gold.PLP.ligand.torsion>
2.1843

> <Gold.PLP.Chemscore.Hbond>
2.0000

> <Gold.PLP.Chemscore.CHOScore>
1.0113

> <Gold.PLP.Chemscore.Metal>
0.0000

> <Gold.Chemscore.Hbonds>
donor molecule, donor type, donor heavy atom, donor atom, acceptor molecule, acceptor atom, score
      L1  H    16    35       P1  7921  1.00
      P1  H  7989  7998       L1     1  1.00
      L1  C    12    32       P1  7921  0.62
      L1  C    12    32       P1 10171  0.16

> <Gold.PLP.Chemscore.Internal.Correction>
0.1954

> <Gold.Rescore>
     Score         DG    S(hbond)    S(metal)    S(lipo)     H(rot)  DE(clash)    DE(int)     intcor
     14.00     -16.52       1.92        0.00      79.39       1.83       0.51       2.01       ----

> <Gold.Chemscore.Fitness>
14.0047

> <Gold.Chemscore.DG>
-16.5174

> <Gold.Chemscore.ZeroCoef>
-5.4800

> <Gold.Chemscore.Hbond>
1.9227

> <Gold.Chemscore.Metal>
0.0000

> <Gold.Chemscore.Lipo>
79.3921

> <Gold.Chemscore.Internal_Hbond>
0.0000

> <Gold.Chemscore.DEClash>
0.5051

> <Gold.Chemscore.DEInternal>
2.0076

> <Gold.Chemscore.Rot>
1.8255

> <Gold.Chemscore.Internal.Correction>
   9.000000E+99

> <Gold.Chemscore.Hbonds>
donor molecule, donor type, donor heavy atom, donor atom, acceptor molecule, acceptor atom, score
      L1  H    16    35       P1  7921  0.94
      P1  H  7989  7998       L1     1  0.96

> <Gold.Chemscore.Hbond.Weighted>
-6.4218

> <Gold.Chemscore.Metal.Weighted>
-0.0000

> <Gold.Chemscore.Lipo.Weighted>
-9.2889

> <Gold.Chemscore.Internal_Hbond.Weighted>
0.0000

> <Gold.Chemscore.DEClash.Weighted>
0.5051

> <Gold.Chemscore.DEInternal.Weighted>
2.0076

> <Gold.Chemscore.Rot.Weighted>
4.6732

> <Gold.Chemscore.Internal.Correction.Weighted>
   9.000000E+99

> <Gold.Protein.RotatedTorsions>
[ 6907 6896 6895 6894 ] final  -55.92 input  -60.11 | X-H torsion
[ 7974 7965 7964 7962 ] final  -80.09 input  175.53 | X-H torsion
[ 8008 7997 7996 7995 ] final  165.72 input   59.86 | X-H torsion
[ 10167 10162 10161 10158 ] final -117.04 input  -65.29 | X-H torsion
[ 10718 10713 10712 10709 ] final   27.22 input   66.30 | X-H torsion
[ 10763 10752 10751 10750 ] final   77.67 input  -60.55 | X-H torsion
[ 11005 11000 10999 10996 ] final -130.57 input  -57.11 | X-H torsion

> <Gold.Protein.ActiveResidues>
 VAL166  LYS551  ARG553  GLY616  TRP617  ASP618  TYR619  PRO620  LYS621  CYS622 
 ASP623  PHE694  ASN695  SER759  ASP760  ASP761  ALA762  ILE779  LEU786  VAL792 
 PHE793  MET794  SER795  GLU796  ALA797  LYS798  CYS799  TRP800  GLU811  SER814 

> <Gold.Protein.RotatedAtoms>
  150.8211  134.7418  159.6772 H   0  0  0  0  0  0  0  0  0  0  0  0  # atno 6907 bound_to 6896
  152.4326  134.5745  159.9940 H   0  0  0  0  0  0  0  0  0  0  0  0  # atno 6908 bound_to 6896
  151.5929  133.3327  159.3067 H   0  0  0  0  0  0  0  0  0  0  0  0  # atno 6909 bound_to 6896
  145.5645  140.9476  143.1429 H   0  0  0  0  0  0  0  0  0  0  0  0  # atno 7974 bound_to 7965
  156.1777  140.1662  156.8332 H   0  0  0  0  0  0  0  0  0  0  0  0  # atno 8008 bound_to 7997
  154.5325  140.0753  156.8404 H   0  0  0  0  0  0  0  0  0  0  0  0  # atno 8009 bound_to 7997
  155.3377  140.3383  155.4241 H   0  0  0  0  0  0  0  0  0  0  0  0  # atno 8010 bound_to 7997
  140.0727  143.4862  152.1971 H   0  0  0  0  0  0  0  0  0  0  0  0  # atno 10167 bound_to 10162
  157.2173  130.6962  149.6254 H   0  0  0  0  0  0  0  0  0  0  0  0  # atno 10718 bound_to 10713
  153.0816  135.4906  154.8513 H   0  0  0  0  0  0  0  0  0  0  0  0  # atno 10763 bound_to 10752
  154.7157  135.3029  154.9129 H   0  0  0  0  0  0  0  0  0  0  0  0  # atno 10764 bound_to 10752
  153.9809  135.6790  153.4803 H   0  0  0  0  0  0  0  0  0  0  0  0  # atno 10765 bound_to 10752
  140.9334  134.1289  157.4215 H   0  0  0  0  0  0  0  0  0  0  0  0  # atno 11005 bound_to 11000
  144.7467  139.7302  143.7289 LP  0  0  0  0  0  0  0  0  0  0  0  0  # atno 17320 bound_to 7965
  146.1827  139.5028  142.9856 LP  0  0  0  0  0  0  0  0  0  0  0  0  # atno 17321 bound_to 7965
  139.5826  144.7517  151.3600 LP  0  0  0  0  0  0  0  0  0  0  0  0  # atno 17342 bound_to 10162
  140.7117  143.7372  150.7580 LP  0  0  0  0  0  0  0  0  0  0  0  0  # atno 17343 bound_to 10162
  155.9685  130.4531  150.5800 LP  0  0  0  0  0  0  0  0  0  0  0  0  # atno 17370 bound_to 10713
  157.3612  131.0750  151.1635 LP  0  0  0  0  0  0  0  0  0  0  0  0  # atno 17371 bound_to 10713
  139.8802  135.0013  156.6058 LP  0  0  0  0  0  0  0  0  0  0  0  0  # atno 17394 bound_to 11000
  140.7832  133.8643  155.8584 LP  0  0  0  0  0  0  0  0  0  0  0  0  # atno 17395 bound_to 11000

$$$$
