#       Name:                AV-unprocessed.smi:3290
#       Creating user name   scv26
#       Creation time:       Fri Mar 27 18:55:01 2020


#       File generated by GOLD software.
#

@<TRIPOS>MOLECULE
AV-unprocessed.smi:3290
    46    47     1
SMALL
NO_CHARGES


@<TRIPOS>ATOM
      1 ****        -1.1061   3.6442   0.1074 C.3            1 S1                 0.0000
      2 ****        -1.6421   2.6195  -0.9132 C.3            1 S1                 0.0000
      3 ****        -3.1853   2.5897  -0.9327 C.3            1 S1                 0.0000
      4 ****        -3.7734   1.9104   0.3157 C.3            1 S1                 0.0000
      5 ****        -3.2013   0.4975   0.5015 C.3            1 S1                 0.0000
      6 ****        -1.6648   0.5115   0.5324 C.3            1 S1                 0.0000
      7 ****        -1.0785   1.1847  -0.7300 C.3            1 S1                 0.0000
      8 ****         0.4627   1.1436  -0.7553 C.3            1 S1                 0.0000
      9 ****         0.9657  -0.2369  -0.8959 N.4            1 S1                 1.0000
     10 ****         2.4384  -0.3437  -0.9205 C.3            1 S1                 0.0000
     11 ****         2.8974  -1.8128  -0.9461 C.3            1 S1                 0.0000
     12 ****         4.3021  -1.8346  -1.0902 O.3            1 S1                 0.0000
     13 ****         2.4374  -2.5768   0.2870 C.ar           1 S1                 0.0000
     14 ****         3.0272  -2.3448   1.5483 C.ar           1 S1                 0.0000
     15 ****         2.5498  -3.0688   2.6590 C.ar           1 S1                 0.0000
     16 ****         1.5515  -3.9741   2.5793 N.ar           1 S1                 0.0000
     17 ****         0.9913  -4.1927   1.3706 C.ar           1 S1                 0.0000
     18 ****         1.3941  -3.5223   0.1983 C.ar           1 S1                 0.0000
     19 ****        -1.3234   3.3553   1.1351 H              1 S1                 0.0000
     20 ****        -1.5529   4.6252  -0.0566 H              1 S1                 0.0000
     21 ****        -0.0272   3.7702   0.0201 H              1 S1                 0.0000
     22 ****        -1.3228   2.9728  -1.8947 H              1 S1                 0.0000
     23 ****        -3.5829   3.6009  -1.0282 H              1 S1                 0.0000
     24 ****        -3.5217   2.0513  -1.8197 H              1 S1                 0.0000
     25 ****        -3.5641   2.5113   1.2010 H              1 S1                 0.0000
     26 ****        -4.8595   1.8607   0.2317 H              1 S1                 0.0000
     27 ****        -3.5882   0.0579   1.4214 H              1 S1                 0.0000
     28 ****        -3.5430  -0.1429  -0.3126 H              1 S1                 0.0000
     29 ****        -1.3200   1.0254   1.4300 H              1 S1                 0.0000
     30 ****        -1.3056  -0.5145   0.6162 H              1 S1                 0.0000
     31 ****        -1.4232   0.6085  -1.5907 H              1 S1                 0.0000
     32 ****         0.8368   1.7339  -1.5931 H              1 S1                 0.0000
     33 ****         0.8723   1.5814   0.1559 H              1 S1                 0.0000
     34 ****         0.6222  -0.7783  -0.1152 H              1 S1                 0.0000
     35 ****         2.8099   0.1817  -1.8015 H              1 S1                 0.0000
     36 ****         2.8525   0.1639  -0.0478 H              1 S1                 0.0000
     37 ****         2.4850  -2.2973  -1.8325 H              1 S1                 0.0000
     38 ****         4.5809  -2.7330  -1.1846 H              1 S1                 0.0000
     39 ****         3.8270  -1.6285   1.6671 H              1 S1                 0.0000
     40 ****         2.9793  -2.9136   3.6377 H              1 S1                 0.0000
     41 ****         0.1952  -4.9217   1.3369 H              1 S1                 0.0000
     42 ****         0.9097  -3.7337  -0.7438 H              1 S1                 0.0000
     43 ****         0.5977  -0.6320  -1.7496 H              1 S1                 0.0000
     44 ****         4.7303  -1.4320  -0.2811 LP             1 S1                 0.0000
     45 ****         4.5659  -1.3127  -1.9014 LP             1 S1                 0.0000
     46 ****         1.2368  -4.4673   3.3903 LP             1 S1                 0.0000
@<TRIPOS>BOND
    1    1    2 1     
    2    1   19 1     
    3    1   20 1     
    4    1   21 1     
    5    2    7 1     
    6    2    3 1     
    7    2   22 1     
    8    3    4 1     
    9    3   23 1     
   10    3   24 1     
   11    4    5 1     
   12    4   25 1     
   13    4   26 1     
   14    5    6 1     
   15    5   27 1     
   16    5   28 1     
   17    6    7 1     
   18    6   29 1     
   19    6   30 1     
   20    7    8 1     
   21    7   31 1     
   22    8    9 1     
   23    8   32 1     
   24    8   33 1     
   25    9   10 1     
   26    9   34 1     
   27    9   43 1     
   28   10   11 1     
   29   10   35 1     
   30   10   36 1     
   31   11   12 1     
   32   11   13 1     
   33   11   37 1     
   34   12   38 1     
   35   13   18 ar    
   36   13   14 ar    
   37   14   15 ar    
   38   14   39 1     
   39   15   16 ar    
   40   15   40 1     
   41   16   17 ar    
   42   17   18 ar    
   43   17   41 1     
   44   18   42 1     
   45   12   44 1     
   46   12   45 1     
   47   16   46 1     
@<TRIPOS>SUBSTRUCTURE
      1 S1             1
@<TRIPOS>SET
LONE_PAIRS      STATIC     ATOMS    <user>   **** ""
3 44 45 46
DONOR_HYDROGENS      STATIC     ATOMS    <user>   **** ""
3 34 43 38
ATOM$BLUE        STATIC     ATOMS    COLORGROUP SYSTEM
3 44 45 46
ATOM$RED        STATIC     ATOMS    COLORGROUP SYSTEM
3 34 43 38
