#       Name:                AV-unprocessed.smi:573
#       Creating user name   scv26
#       Creation time:       Thu Mar 26 23:47:48 2020


#       File generated by GOLD software.
#

@<TRIPOS>MOLECULE
AV-unprocessed.smi:573
    49    51     1
SMALL
NO_CHARGES


@<TRIPOS>ATOM
      1 ****        -0.4501  -0.9193   2.4158 C.3            1 S1                 0.0000
      2 ****        -1.3070   0.3223   2.7089 C.3            1 S1                 0.0000
      3 ****        -2.5896  -0.0636   3.1580 O.3            1 S1                 0.0000
      4 ****        -1.4479   1.3068   1.5317 C.3            1 S1                 0.0000
      5 ****        -1.8789   0.6658   0.3011 N.pl3          1 S1                 0.0000
      6 ****        -1.1749   0.1543  -0.7826 C.2            1 S1                 0.0000
      7 ****        -1.7488  -0.4053  -1.8462 N.2            1 S1                 0.0000
      8 ****        -0.6569  -0.7472  -2.6216 C.ar           1 S1                 0.0000
      9 ****        -0.5909  -1.3797  -3.8838 C.ar           1 S1                 0.0000
     10 ****         0.6566  -1.6325  -4.4913 C.ar           1 S1                 0.0000
     11 ****         1.8537  -1.2593  -3.8466 C.ar           1 S1                 0.0000
     12 ****         1.8115  -0.6273  -2.5889 C.ar           1 S1                 0.0000
     13 ****         0.5641  -0.3740  -1.9872 C.ar           1 S1                 0.0000
     14 ****         0.1771   0.2176  -0.7882 N.pl3          1 S1                 0.0000
     15 ****         1.0549   0.7768   0.2303 C.3            1 S1                 0.0000
     16 ****         1.3099  -0.2135   1.3783 C.3            1 S1                 0.0000
     17 ****         2.2620   0.3662   2.4414 C.3            1 S1                 0.0000
     18 ****         2.5426  -0.6714   3.5342 C.3            1 S1                 0.0000
     19 ****         3.0290  -1.9769   2.8955 C.3            1 S1                 0.0000
     20 ****         2.0477  -2.4383   1.8060 C.3            1 S1                 0.0000
     21 ****         1.8757  -1.4070   0.8394 O.3            1 S1                 0.0000
     22 ****         0.5418  -0.6347   2.0637 H              1 S1                 0.0000
     23 ****        -0.9048  -1.5547   1.6553 H              1 S1                 0.0000
     24 ****        -0.3207  -1.5248   3.3132 H              1 S1                 0.0000
     25 ****        -0.8440   0.8619   3.5354 H              1 S1                 0.0000
     26 ****        -3.0656   0.7135   3.4076 H              1 S1                 0.0000
     27 ****        -2.1477   2.1046   1.7822 H              1 S1                 0.0000
     28 ****        -0.4870   1.7878   1.3449 H              1 S1                 0.0000
     29 ****        -2.8760   0.5137   0.2582 H              1 S1                 0.0000
     30 ****        -1.5017  -1.6717  -4.3850 H              1 S1                 0.0000
     31 ****         0.6950  -2.1163  -5.4562 H              1 S1                 0.0000
     32 ****         2.8048  -1.4593  -4.3180 H              1 S1                 0.0000
     33 ****         2.7270  -0.3429  -2.0919 H              1 S1                 0.0000
     34 ****         1.9974   1.0591  -0.2398 H              1 S1                 0.0000
     35 ****         0.6147   1.6997   0.6095 H              1 S1                 0.0000
     36 ****         0.3546  -0.4577   1.8468 H              1 S1                 0.0000
     37 ****         3.2007   0.6640   1.9721 H              1 S1                 0.0000
     38 ****         1.8335   1.2662   2.8834 H              1 S1                 0.0000
     39 ****         3.2833  -0.2926   4.2387 H              1 S1                 0.0000
     40 ****         1.6323  -0.8586   4.1050 H              1 S1                 0.0000
     41 ****         4.0150  -1.8243   2.4552 H              1 S1                 0.0000
     42 ****         3.1415  -2.7505   3.6554 H              1 S1                 0.0000
     43 ****         2.4332  -3.3271   1.3063 H              1 S1                 0.0000
     44 ****         1.0837  -2.7099   2.2386 H              1 S1                 0.0000
     45 ****        -2.5020  -0.6733   3.9458 LP             1 S1                 0.0000
     46 ****        -3.0764  -0.5361   2.4233 LP             1 S1                 0.0000
     47 ****        -2.7211  -0.5429  -2.0354 LP             1 S1                 0.0000
     48 ****         2.7696  -1.1859   0.4494 LP             1 S1                 0.0000
     49 ****         1.2720  -1.7463   0.1180 LP             1 S1                 0.0000
@<TRIPOS>BOND
    1    1    2 1     
    2    1   22 1     
    3    1   23 1     
    4    1   24 1     
    5    2    3 1     
    6    2    4 1     
    7    2   25 1     
    8    3   26 1     
    9    4    5 1     
   10    4   27 1     
   11    4   28 1     
   12    5    6 1     
   13    5   29 1     
   14    6   14 1     
   15    6    7 2     
   16    7    8 1     
   17    8   13 ar    
   18    8    9 ar    
   19    9   10 ar    
   20    9   30 1     
   21   10   11 ar    
   22   10   31 1     
   23   11   12 ar    
   24   11   32 1     
   25   12   13 ar    
   26   12   33 1     
   27   13   14 1     
   28   14   15 1     
   29   15   16 1     
   30   15   34 1     
   31   15   35 1     
   32   16   21 1     
   33   16   17 1     
   34   16   36 1     
   35   17   18 1     
   36   17   37 1     
   37   17   38 1     
   38   18   19 1     
   39   18   39 1     
   40   18   40 1     
   41   19   20 1     
   42   19   41 1     
   43   19   42 1     
   44   20   21 1     
   45   20   43 1     
   46   20   44 1     
   47    3   45 1     
   48    3   46 1     
   49    7   47 1     
   50   21   48 1     
   51   21   49 1     
@<TRIPOS>SUBSTRUCTURE
      1 S1             1
@<TRIPOS>SET
LONE_PAIRS      STATIC     ATOMS    <user>   **** ""
5 45 46 47 48 49
DONOR_HYDROGENS      STATIC     ATOMS    <user>   **** ""
2 26 29
ATOM$BLUE        STATIC     ATOMS    COLORGROUP SYSTEM
5 45 46 47 48 49
ATOM$RED        STATIC     ATOMS    COLORGROUP SYSTEM
2 26 29
