AV-unprocessed.smi:180|AV-procd|sdf|1451|dock1
  -GOLD-   2262019243D 1   1.00000     0.00000
 Structure written by MMmdl.
 54 57  0  0  0  0  0  0  0  0  1 V2000
  152.3317  138.6651  154.3830 C   0  0  0  0  0  0  0  0  0  0  0  0
  152.1672  138.8479  155.8883 C   0  0  0  0  0  0  0  0  0  0  0  0
  153.0226  139.4595  156.5272 O   0  0  0  0  0  0  0  0  0  0  0  0
  151.0674  138.3132  156.4404 N   0  0  0  0  0  0  0  0  0  0  0  0
  150.7096  138.3905  157.8543 C   0  0  0  0  0  0  0  0  0  0  0  0
  150.4834  137.0058  158.4922 C   0  0  2  0  0  0  0  0  0  0  0  0
  149.9822  135.9420  157.4933 C   0  0  0  0  0  0  0  0  0  0  0  0
  149.7393  134.6773  158.1829 N   0  0  0  0  0  0  0  0  0  0  0  0
  149.5370  133.5675  157.4269 C   0  0  0  0  0  0  0  0  0  0  0  0
  149.6530  132.3339  157.9884 N   0  0  0  0  0  0  0  0  0  0  0  0
  149.4591  131.2347  157.2541 C   0  0  0  0  0  0  0  0  0  0  0  0
  149.1408  131.1403  155.9621 N   0  0  0  0  0  0  0  0  0  0  0  0
  149.0116  132.3730  155.3938 C   0  0  0  0  0  0  0  0  0  0  0  0
  149.1939  133.6258  156.0458 C   0  0  0  0  0  0  0  0  0  0  0  0
  148.9710  134.6612  155.1454 N   0  0  0  0  0  0  0  0  0  0  0  0
  148.6862  134.0559  154.0251 C   0  0  0  0  0  0  0  0  0  0  0  0
  148.6724  132.6808  154.0876 N   0  0  0  0  0  0  0  0  0  0  0  0
  148.3833  131.7609  152.9983 C   0  0  0  0  0  0  0  0  0  0  0  0
  146.9131  131.7867  152.5073 C   0  0  0  0  0  0  0  0  0  0  0  0
  146.1318  131.9588  153.6760 O   0  0  0  0  0  0  0  0  0  0  0  0
  146.6158  132.9588  151.5466 C   0  0  0  0  0  0  0  0  0  0  0  0
  145.1764  132.9049  151.0032 C   0  0  0  0  0  0  0  0  0  0  0  0
  144.9395  131.6506  150.3743 O   0  0  0  0  0  0  0  0  0  0  0  0
  145.0510  130.5509  151.2705 C   0  0  0  0  0  0  0  0  0  0  0  0
  146.4835  130.4684  151.8280 C   0  0  0  0  0  0  0  0  0  0  0  0
  148.8538  134.8153  159.3346 C   0  0  0  0  0  0  0  0  0  0  0  0
  149.3828  135.9064  160.2795 C   0  0  0  0  0  0  0  0  0  0  0  0
  149.5493  137.1252  159.5627 O   0  0  0  0  0  0  0  0  0  0  0  0
  151.3976  138.3539  153.9135 H   0  0  0  0  0  0  0  0  0  0  0  0
  153.0886  137.9080  154.1778 H   0  0  0  0  0  0  0  0  0  0  0  0
  152.6481  139.6007  153.9211 H   0  0  0  0  0  0  0  0  0  0  0  0
  150.4232  137.8258  155.8347 H   0  0  0  0  0  0  0  0  0  0  0  0
  151.5279  138.8931  158.3702 H   0  0  0  0  0  0  0  0  0  0  0  0
  149.8305  139.0216  157.9956 H   0  0  0  0  0  0  0  0  0  0  0  0
  151.4368  136.6769  158.9096 H   0  0  0  0  0  0  0  0  0  0  0  0
  149.0567  136.2695  157.0179 H   0  0  0  0  0  0  0  0  0  0  0  0
  150.7237  135.8024  156.7053 H   0  0  0  0  0  0  0  0  0  0  0  0
  149.5746  130.2969  157.7772 H   0  0  0  0  0  0  0  0  0  0  0  0
  148.4667  134.6001  153.1178 H   0  0  0  0  0  0  0  0  0  0  0  0
  149.0578  131.9956  152.1735 H   0  0  0  0  0  0  0  0  0  0  0  0
  148.6500  130.7556  153.3281 H   0  0  0  0  0  0  0  0  0  0  0  0
  146.2353  132.8483  153.9778 H   0  0  0  0  0  0  0  0  0  0  0  0
  146.7974  133.9146  152.0395 H   0  0  0  0  0  0  0  0  0  0  0  0
  147.2932  132.9198  150.6936 H   0  0  0  0  0  0  0  0  0  0  0  0
  144.4470  133.0703  151.7975 H   0  0  0  0  0  0  0  0  0  0  0  0
  145.0268  133.6968  150.2693 H   0  0  0  0  0  0  0  0  0  0  0  0
  144.3187  130.6458  152.0736 H   0  0  0  0  0  0  0  0  0  0  0  0
  144.8086  129.6351  150.7312 H   0  0  0  0  0  0  0  0  0  0  0  0
  147.1508  130.2447  150.9960 H   0  0  0  0  0  0  0  0  0  0  0  0
  146.5687  129.6329  152.5240 H   0  0  0  0  0  0  0  0  0  0  0  0
  147.8559  135.0807  158.9829 H   0  0  0  0  0  0  0  0  0  0  0  0
  148.7565  133.8795  159.8830 H   0  0  0  0  0  0  0  0  0  0  0  0
  148.6790  136.0692  161.0958 H   0  0  0  0  0  0  0  0  0  0  0  0
  150.3294  135.6044  160.7307 H   0  0  0  0  0  0  0  0  0  0  0  0
  1  2  1  0  0  0  0
  1 29  1  0  0  0  0
  1 30  1  0  0  0  0
  1 31  1  0  0  0  0
  2  3  2  0  0  0  0
  2  4  1  0  0  0  0
  4  5  1  0  0  0  0
  4 32  1  0  0  0  0
  5  6  1  0  0  0  0
  5 33  1  0  0  0  0
  5 34  1  0  0  0  0
  6 28  1  0  0  0  0
  6  7  1  0  0  0  0
  6 35  1  0  0  0  0
  7  8  1  0  0  0  0
  7 36  1  0  0  0  0
  7 37  1  0  0  0  0
  8  9  1  0  0  0  0
  8 26  1  0  0  0  0
  9 14  1  0  0  0  0
  9 10  2  0  0  0  0
 10 11  1  0  0  0  0
 11 12  2  0  0  0  0
 11 38  1  0  0  0  0
 12 13  1  0  0  0  0
 13 17  1  0  0  0  0
 13 14  2  0  0  0  0
 14 15  1  0  0  0  0
 15 16  2  0  0  0  0
 16 17  1  0  0  0  0
 16 39  1  0  0  0  0
 17 18  1  0  0  0  0
 18 19  1  0  0  0  0
 18 40  1  0  0  0  0
 18 41  1  0  0  0  0
 19 25  1  0  0  0  0
 19 20  1  0  0  0  0
 19 21  1  0  0  0  0
 20 42  1  0  0  0  0
 21 22  1  0  0  0  0
 21 43  1  0  0  0  0
 21 44  1  0  0  0  0
 22 23  1  0  0  0  0
 22 45  1  0  0  0  0
 22 46  1  0  0  0  0
 23 24  1  0  0  0  0
 24 25  1  0  0  0  0
 24 47  1  0  0  0  0
 24 48  1  0  0  0  0
 25 49  1  0  0  0  0
 25 50  1  0  0  0  0
 26 27  1  0  0  0  0
 26 51  1  0  0  0  0
 26 52  1  0  0  0  0
 27 28  1  0  0  0  0
 27 53  1  0  0  0  0
 27 54  1  0  0  0  0
M  END
> <s_m_source_file>
AV-unprocessed.smi

> <i_m_source_file_index>
180

> <i_lp_mmshare_version>
43012

> <i_f3d_flags>
0

> <s_epik_input>
W0NIM11DKD1PKVtOSF1bQ0gyXVtDQEBIXTFbQ0gyXU4oW0NIMl1bQ0gyXU8xKWMobltjSF1uMiljKGMyMyluW2NIXW4zW0NIMl1DNChbT0hdKVtDSDJdW0NIMl1PW0NIMl1bQ0gyXTQ=

> <s_epik_cmdline>
J2VwaWtfcHl0aG9uJywgJy1waCcsICc3LjAnLCAnLXRuJywgJzgnLCAnLW1hJywgJzIwMCcsICctbWV0YWxfYmluZGluZycsICctaW1hZScsICc8aW5maWxlLm1hZT4nLCAnLW9tYWUnLCAnPG91dGZpbGUubWFlPic=

> <r_lp_tautomer_probability>
1

> <r_epik_Ionization_Penalty>
7.38871e-05

> <r_epik_Ionization_Penalty_Charging>
0

> <r_epik_Ionization_Penalty_Neutral>
7.38871e-05

> <r_epik_State_Penalty>
-0

> <r_epik_Charging_Adjusted_Penalty>
0

> <i_epik_Tot_Q>
0

> <i_epik_Tot_abs_Q>
0

> <r_epik_Metal_State_Penalty>
-0

> <b_epik_Metal_Only>
0

> <s_lp_Force_Field>
OPLS_2005

> <r_lp_Energy>
31.1245

> <b_lp_Chiralities_Consistent>
1

> <s_lp_Variant>
AV-unprocessed.smi:180-1

> <Gold.Version>
5.8.1

> <Gold.Id.Protein>
6NUR|6NUR_protein|mol2

> <Gold.PLP.Fitness>
42.1006

> <Gold.PLP.PLP>
-34.6246

> <Gold.PLP.part.hbond>
-4.5198

> <Gold.PLP.part.metal>
0.0000

> <Gold.PLP.part.buried>
-1.5919

> <Gold.PLP.part.nonpolar>
-28.7719

> <Gold.PLP.part.repulsive>
0.2031

> <Gold.PLP.ligand.clash>
0.0000

> <Gold.PLP.ligand.torsion>
1.0146

> <Gold.PLP.Chemscore.Hbond>
2.0000

> <Gold.PLP.Chemscore.CHOScore>
1.0000

> <Gold.PLP.Chemscore.Metal>
0.0000

> <Gold.Chemscore.Hbonds>
donor molecule, donor type, donor heavy atom, donor atom, acceptor molecule, acceptor atom, score
      P1  H  7997  8009       L1     3  0.88
      L1  C    16    39       P1  7948  1.00

> <Gold.PLP.Chemscore.Internal.Correction>
0.5051

> <Gold.Rescore>
     Score         DG    S(hbond)    S(metal)    S(lipo)     H(rot)  DE(clash)    DE(int)     intcor
      7.73      -9.89       1.05        0.00      73.12       2.99       0.05       2.11       ----

> <Gold.Chemscore.Fitness>
7.7253

> <Gold.Chemscore.DG>
-9.8856

> <Gold.Chemscore.ZeroCoef>
-5.4800

> <Gold.Chemscore.Hbond>
1.0483

> <Gold.Chemscore.Metal>
0.0000

> <Gold.Chemscore.Lipo>
73.1191

> <Gold.Chemscore.Internal_Hbond>
0.0000

> <Gold.Chemscore.DEClash>
0.0511

> <Gold.Chemscore.DEInternal>
2.1092

> <Gold.Chemscore.Rot>
2.9885

> <Gold.Chemscore.Internal.Correction>
   9.000000E+99

> <Gold.Chemscore.Hbonds>
donor molecule, donor type, donor heavy atom, donor atom, acceptor molecule, acceptor atom, score
      P1  H  7997  8009       L1     3  0.86

> <Gold.Chemscore.Hbond.Weighted>
-3.5012

> <Gold.Chemscore.Metal.Weighted>
-0.0000

> <Gold.Chemscore.Lipo.Weighted>
-8.5549

> <Gold.Chemscore.Internal_Hbond.Weighted>
0.0000

> <Gold.Chemscore.DEClash.Weighted>
0.0511

> <Gold.Chemscore.DEInternal.Weighted>
2.1092

> <Gold.Chemscore.Rot.Weighted>
7.6506

> <Gold.Chemscore.Internal.Correction.Weighted>
   9.000000E+99

> <Gold.Protein.RotatedTorsions>
[ 6907 6896 6895 6894 ] final   56.12 input  -60.11 | X-H torsion
[ 7974 7965 7964 7962 ] final  -60.56 input  175.53 | X-H torsion
[ 8008 7997 7996 7995 ] final -177.79 input   59.86 | X-H torsion
[ 10167 10162 10161 10158 ] final   30.30 input  -65.29 | X-H torsion
[ 10718 10713 10712 10709 ] final -146.12 input   66.30 | X-H torsion
[ 10763 10752 10751 10750 ] final -150.81 input  -60.55 | X-H torsion
[ 11005 11000 10999 10996 ] final   93.81 input  -57.11 | X-H torsion

> <Gold.Protein.ActiveResidues>
 VAL166  LYS551  ARG553  GLY616  TRP617  ASP618  TYR619  PRO620  LYS621  CYS622 
 ASP623  PHE694  ASN695  SER759  ASP760  ASP761  ALA762  ILE779  LEU786  VAL792 
 PHE793  MET794  SER795  GLU796  ALA797  LYS798  CYS799  TRP800  GLU811  SER814 

> <Gold.Protein.RotatedAtoms>
  152.3605  134.6879  160.0208 H   0  0  0  0  0  0  0  0  0  0  0  0  # atno 6907 bound_to 6896
  151.7203  133.3309  159.3322 H   0  0  0  0  0  0  0  0  0  0  0  0  # atno 6908 bound_to 6896
  150.7601  134.6388  159.6270 H   0  0  0  0  0  0  0  0  0  0  0  0  # atno 6909 bound_to 6896
  145.8140  140.8581  143.0167 H   0  0  0  0  0  0  0  0  0  0  0  0  # atno 7974 bound_to 7965
  156.0111  140.1241  157.0453 H   0  0  0  0  0  0  0  0  0  0  0  0  # atno 8008 bound_to 7997
  154.4276  140.1087  156.5900 H   0  0  0  0  0  0  0  0  0  0  0  0  # atno 8009 bound_to 7997
  155.6078  140.3471  155.4615 H   0  0  0  0  0  0  0  0  0  0  0  0  # atno 8010 bound_to 7997
  140.4690  144.0792  150.6232 H   0  0  0  0  0  0  0  0  0  0  0  0  # atno 10167 bound_to 10162
  156.3909  130.7885  151.2087 H   0  0  0  0  0  0  0  0  0  0  0  0  # atno 10718 bound_to 10713
  154.8096  135.3275  154.7340 H   0  0  0  0  0  0  0  0  0  0  0  0  # atno 10763 bound_to 10752
  153.7991  135.6905  153.4863 H   0  0  0  0  0  0  0  0  0  0  0  0  # atno 10764 bound_to 10752
  153.1866  135.4566  155.0042 H   0  0  0  0  0  0  0  0  0  0  0  0  # atno 10765 bound_to 10752
  139.8805  134.8810  156.3772 H   0  0  0  0  0  0  0  0  0  0  0  0  # atno 11005 bound_to 11000
  144.6754  140.0437  143.7480 LP  0  0  0  0  0  0  0  0  0  0  0  0  # atno 17320 bound_to 7965
  145.9746  139.2895  143.1078 LP  0  0  0  0  0  0  0  0  0  0  0  0  # atno 17321 bound_to 7965
  140.4001  143.2708  151.9958 LP  0  0  0  0  0  0  0  0  0  0  0  0  # atno 17342 bound_to 10162
  139.4816  144.6005  151.7614 LP  0  0  0  0  0  0  0  0  0  0  0  0  # atno 17343 bound_to 10162
  157.7499  131.0316  150.4187 LP  0  0  0  0  0  0  0  0  0  0  0  0  # atno 17370 bound_to 10713
  156.4449  130.3999  149.6673 LP  0  0  0  0  0  0  0  0  0  0  0  0  # atno 17371 bound_to 10713
  140.9424  133.7506  156.0163 LP  0  0  0  0  0  0  0  0  0  0  0  0  # atno 17394 bound_to 11000
  140.8204  134.3296  157.5383 LP  0  0  0  0  0  0  0  0  0  0  0  0  # atno 17395 bound_to 11000

$$$$
