#       Name:                AV-unprocessed.smi:49
#       Creating user name   scv26
#       Creation time:       Thu Mar 26 16:34:03 2020


#       File generated by GOLD software.
#

@<TRIPOS>MOLECULE
AV-unprocessed.smi:49
    32    33     1
SMALL
NO_CHARGES


@<TRIPOS>ATOM
      1 ****        -4.2282   0.8954   0.5881 C.3            1 S1                 0.0000
      2 ****        -3.6164  -0.4646   0.9410 C.3            1 S1                 0.0000
      3 ****        -2.1287  -0.4785   0.8083 C.2            1 S1                 0.0000
      4 ****        -1.4637  -0.6026  -0.3353 N.2            1 S1                 0.0000
      5 ****        -0.1766  -0.5555   0.1240 C.2            1 S1                 0.0000
      6 ****         1.0015  -0.6177  -0.8005 C.3            1 S1                 0.0000
      7 ****         1.5463   0.7825  -1.1450 C.3            1 S1                 0.0000
      8 ****         2.9567   0.7937  -0.5601 C.3            1 S1                 0.0000
      9 ****         3.8490   1.6097  -1.2890 O.3            1 S1                 0.0000
     10 ****         3.3475  -0.6776  -0.6045 C.3            1 S1                 0.0000
     11 ****         2.1258  -1.3852  -0.2529 N.3            1 S1                 0.0000
     12 ****        -0.0346  -0.3852   1.4397 N.2            1 S1                 0.0000
     13 ****        -1.3166  -0.3452   1.8588 N.pl3          1 S1                 0.0000
     14 ****         0.6743  -1.0887  -1.7284 H              1 S1                 0.0000
     15 ****         2.9225   1.1319   0.4768 H              1 S1                 0.0000
     16 ****        -1.5772  -0.2265   2.8275 H              1 S1                 0.0000
     17 ****        -5.3130   0.8718   0.6927 H              1 S1                 0.0000
     18 ****        -3.9992   1.1743  -0.4409 H              1 S1                 0.0000
     19 ****        -3.8463   1.6803   1.2414 H              1 S1                 0.0000
     20 ****        -3.8854  -0.7384   1.9620 H              1 S1                 0.0000
     21 ****        -4.0311  -1.2370   0.2927 H              1 S1                 0.0000
     22 ****         1.5857   0.8915  -2.2300 H              1 S1                 0.0000
     23 ****         0.9338   1.5983  -0.7582 H              1 S1                 0.0000
     24 ****         4.7030   1.5525  -0.8881 H              1 S1                 0.0000
     25 ****         3.6528  -0.9529  -1.6151 H              1 S1                 0.0000
     26 ****         4.1680  -0.9179   0.0719 H              1 S1                 0.0000
     27 ****         2.1502  -2.3071  -0.6764 H              1 S1                 0.0000
     28 ****        -1.8076  -0.7024  -1.2690 LP             1 S1                 0.0000
     29 ****         3.5307   2.5575  -1.2711 LP             1 S1                 0.0000
     30 ****         3.8990   1.2927  -2.2361 LP             1 S1                 0.0000
     31 ****         2.0322  -1.4822   0.7380 LP             1 S1                 0.0000
     32 ****         0.8053  -0.3073   1.9767 LP             1 S1                 0.0000
@<TRIPOS>BOND
    1    1    2 1     
    2    1   17 1     
    3    1   18 1     
    4    1   19 1     
    5    2    3 1     
    6    2   20 1     
    7    2   21 1     
    8    3   13 1     
    9    3    4 2     
   10    4    5 1     
   11    5    6 1     
   12    5   12 2     
   13    6   14 1     
   14    6   11 1     
   15    6    7 1     
   16    7    8 1     
   17    7   22 1     
   18    7   23 1     
   19    8   15 1     
   20    8    9 1     
   21    8   10 1     
   22    9   24 1     
   23   10   11 1     
   24   10   25 1     
   25   10   26 1     
   26   11   27 1     
   27   12   13 1     
   28   13   16 1     
   29    4   28 1     
   30    9   29 1     
   31    9   30 1     
   32   11   31 1     
   33   12   32 1     
@<TRIPOS>SUBSTRUCTURE
      1 S1             1
@<TRIPOS>SET
LONE_PAIRS      STATIC     ATOMS    <user>   **** ""
5 28 29 30 31 32
DONOR_HYDROGENS      STATIC     ATOMS    <user>   **** ""
3 24 27 16
ATOM$BLUE        STATIC     ATOMS    COLORGROUP SYSTEM
5 28 29 30 31 32
ATOM$RED        STATIC     ATOMS    COLORGROUP SYSTEM
3 24 27 16
