#       Name:                AV-unprocessed.smi:1956
#       Creating user name   scv26
#       Creation time:       Fri Mar 27 10:06:04 2020


#       File generated by GOLD software.
#

@<TRIPOS>MOLECULE
AV-unprocessed.smi:1956
    51    52     1
SMALL
NO_CHARGES


@<TRIPOS>ATOM
      1 ****        -8.3196   3.2992  -0.4041 C.3            1 S1                 0.0000
      2 ****        -7.0392   3.9208  -0.3927 O.3            1 S1                 0.0000
      3 ****        -5.9413   3.1539  -0.0601 C.ar           1 S1                 0.0000
      4 ****        -4.6705   3.7622  -0.0556 C.ar           1 S1                 0.0000
      5 ****        -3.5447   2.9864   0.2804 C.ar           1 S1                 0.0000
      6 ****        -3.7249   1.6180   0.5946 C.ar           1 S1                 0.0000
      7 ****        -2.6730   0.7364   0.9650 N.am           1 S1                 0.0000
      8 ****        -1.3578   0.8531   0.7135 C.2            1 S1                 0.0000
      9 ****        -0.8333   1.7588   0.0656 O.2            1 S1                 0.0000
     10 ****        -0.6658  -0.1669   1.2415 N.am           1 S1                 0.0000
     11 ****         0.7808  -0.3274   1.1436 C.3            1 S1                 0.0000
     12 ****         1.1938  -0.9056  -0.2243 C.3            1 S1                 0.0000
     13 ****         2.6672  -0.9987  -0.3850 N.4            1 S1                 1.0000
     14 ****         3.0677  -1.0641  -1.8147 C.3            1 S1                 0.0000
     15 ****         4.5959  -1.0155  -1.9666 C.3            1 S1                 0.0000
     16 ****         5.2626  -2.1392  -1.1643 C.3            1 S1                 0.0000
     17 ****         4.8197  -2.0774   0.3071 C.3            1 S1                 0.0000
     18 ****         5.4530  -3.2081   1.1302 C.3            1 S1                 0.0000
     19 ****         3.2805  -2.1006   0.4049 C.3            1 S1                 0.0000
     20 ****        -5.0403   1.1095   0.5758 C.ar           1 S1                 0.0000
     21 ****        -6.1237   1.8473   0.2538 N.ar           1 S1                 0.0000
     22 ****        -9.0736   4.0327  -0.6893 H              1 S1                 0.0000
     23 ****        -8.5873   2.9170   0.5820 H              1 S1                 0.0000
     24 ****        -8.3612   2.4842  -1.1281 H              1 S1                 0.0000
     25 ****        -4.5606   4.8083  -0.3014 H              1 S1                 0.0000
     26 ****        -2.5750   3.4588   0.3030 H              1 S1                 0.0000
     27 ****        -2.9638  -0.1082   1.4354 H              1 S1                 0.0000
     28 ****        -1.1726  -0.8733   1.7553 H              1 S1                 0.0000
     29 ****         1.2745   0.6299   1.3197 H              1 S1                 0.0000
     30 ****         1.0862  -0.9879   1.9540 H              1 S1                 0.0000
     31 ****         0.7410  -1.8855  -0.3832 H              1 S1                 0.0000
     32 ****         0.7978  -0.2545  -1.0050 H              1 S1                 0.0000
     33 ****         2.6730  -1.9773  -2.2629 H              1 S1                 0.0000
     34 ****         2.6305  -0.2272  -2.3608 H              1 S1                 0.0000
     35 ****         4.8681  -1.0986  -3.0193 H              1 S1                 0.0000
     36 ****         4.9687  -0.0486  -1.6256 H              1 S1                 0.0000
     37 ****         4.9953  -3.1053  -1.5947 H              1 S1                 0.0000
     38 ****         6.3473  -2.0537  -1.2383 H              1 S1                 0.0000
     39 ****         5.1689  -1.1320   0.7255 H              1 S1                 0.0000
     40 ****         5.1455  -4.1873   0.7618 H              1 S1                 0.0000
     41 ****         5.1631  -3.1408   2.1792 H              1 S1                 0.0000
     42 ****         6.5417  -3.1631   1.0865 H              1 S1                 0.0000
     43 ****         2.9957  -2.0129   1.4525 H              1 S1                 0.0000
     44 ****         2.8940  -3.0589   0.0532 H              1 S1                 0.0000
     45 ****        -5.2312   0.0747   0.8209 H              1 S1                 0.0000
     46 ****         3.0467  -0.1333  -0.0280 H              1 S1                 0.0000
     47 ****        -7.0824   4.6753   0.2622 LP             1 S1                 0.0000
     48 ****        -6.8788   4.2847  -1.3102 LP             1 S1                 0.0000
     49 ****        -1.3976   2.4873  -0.3228 LP             1 S1                 0.0000
     50 ****         0.1571   1.7661  -0.0724 LP             1 S1                 0.0000
     51 ****        -7.0374   1.4409   0.2469 LP             1 S1                 0.0000
@<TRIPOS>BOND
    1    1    2 1     
    2    1   22 1     
    3    1   23 1     
    4    1   24 1     
    5    2    3 1     
    6    3   21 ar    
    7    3    4 ar    
    8    4    5 ar    
    9    4   25 1     
   10    5    6 ar    
   11    5   26 1     
   12    6    7 1     
   13    6   20 ar    
   14    7    8 am    
   15    7   27 1     
   16    8    9 2     
   17    8   10 am    
   18   10   11 1     
   19   10   28 1     
   20   11   12 1     
   21   11   29 1     
   22   11   30 1     
   23   12   13 1     
   24   12   31 1     
   25   12   32 1     
   26   13   19 1     
   27   13   14 1     
   28   13   46 1     
   29   14   15 1     
   30   14   33 1     
   31   14   34 1     
   32   15   16 1     
   33   15   35 1     
   34   15   36 1     
   35   16   17 1     
   36   16   37 1     
   37   16   38 1     
   38   17   18 1     
   39   17   19 1     
   40   17   39 1     
   41   18   40 1     
   42   18   41 1     
   43   18   42 1     
   44   19   43 1     
   45   19   44 1     
   46   20   21 ar    
   47   20   45 1     
   48    2   47 1     
   49    2   48 1     
   50    9   49 1     
   51    9   50 1     
   52   21   51 1     
@<TRIPOS>SUBSTRUCTURE
      1 S1             1
@<TRIPOS>SET
LONE_PAIRS      STATIC     ATOMS    <user>   **** ""
5 47 48 49 50 51
DONOR_HYDROGENS      STATIC     ATOMS    <user>   **** ""
3 27 28 46
ATOM$BLUE        STATIC     ATOMS    COLORGROUP SYSTEM
5 47 48 49 50 51
ATOM$RED        STATIC     ATOMS    COLORGROUP SYSTEM
3 27 28 46
