AV-unprocessed.smi:24|AV-procd|sdf|178|dock7
  -GOLD-   2262015443D 1   1.00000     0.00000
 Structure written by MMmdl.
 61 65  0  0  0  0  0  0  0  0  1 V2000
  151.3621  127.6387  157.3418 C   0  0  0  0  0  0  0  0  0  0  0  0
  150.7424  128.8660  157.6975 O   0  0  0  0  0  0  0  0  0  0  0  0
  150.4713  129.7700  156.6930 C   0  0  0  0  0  0  0  0  0  0  0  0
  149.8561  130.9810  157.0693 C   0  0  0  0  0  0  0  0  0  0  0  0
  149.5354  131.9577  156.1072 C   0  0  0  0  0  0  0  0  0  0  0  0
  149.8237  131.7376  154.7454 C   0  0  0  0  0  0  0  0  0  0  0  0
  149.4599  132.8088  153.7179 C   0  0  1  0  0  0  0  0  0  0  0  0
  148.5025  132.2818  152.6453 C   0  0  0  0  0  0  0  0  0  0  0  0
  147.3644  133.2400  152.7601 C   0  0  0  0  0  0  0  0  0  0  0  0
  146.1658  133.1329  151.8985 C   0  0  0  0  0  0  0  0  0  0  0  0
  146.1797  132.2474  150.7967 C   0  0  0  0  0  0  0  0  0  0  0  0
  145.0368  132.1387  149.9804 C   0  0  0  0  0  0  0  0  0  0  0  0
  143.8901  132.9071  150.2623 C   0  0  0  0  0  0  0  0  0  0  0  0
  143.8813  133.7890  151.3613 C   0  0  0  0  0  0  0  0  0  0  0  0
  145.0184  133.9069  152.1849 C   0  0  0  0  0  0  0  0  0  0  0  0
  147.5329  134.1385  153.6582 N   0  0  0  0  0  0  0  0  0  0  0  0
  148.7363  133.9667  154.2602 N   0  0  0  0  0  0  0  0  0  0  0  0
  149.2388  134.8305  155.1701 C   0  0  0  0  0  0  0  0  0  0  0  0
  150.3893  134.7275  155.5999 O   0  0  0  0  0  0  0  0  0  0  0  0
  148.3330  135.9765  155.6681 C   0  0  0  0  0  0  0  0  0  0  0  0
  148.6685  136.4386  157.0325 N   0  0  0  0  0  0  0  0  0  0  0  0
  149.9522  136.9875  157.2727 C   0  0  0  0  0  0  0  0  0  0  0  0
  150.7825  137.0914  156.3687 O   0  0  0  0  0  0  0  0  0  0  0  0
  150.2115  137.4039  158.6464 C   0  0  0  0  0  0  0  0  0  0  0  0
  151.3988  137.9476  158.9639 F   0  0  0  0  0  0  0  0  0  0  0  0
  149.2771  137.2526  159.6076 C   0  0  0  0  0  0  0  0  0  0  0  0
  148.0331  136.6995  159.3614 N   0  0  0  0  0  0  0  0  0  0  0  0
  147.0013  136.5209  160.4541 C   0  0  1  0  0  0  0  0  0  0  0  0
  146.8265  135.0291  160.7928 C   0  0  0  0  0  0  0  0  0  0  0  0
  146.9527  135.0147  162.3029 C   0  0  0  0  0  0  0  0  0  0  0  0
  147.8898  136.1873  162.5501 C   0  0  0  0  0  0  0  0  0  0  0  0
  147.4293  137.1617  161.6228 O   0  0  0  0  0  0  0  0  0  0  0  0
  147.7029  136.2798  158.0549 C   0  0  0  0  0  0  0  0  0  0  0  0
  146.6017  135.7784  157.8161 O   0  0  0  0  0  0  0  0  0  0  0  0
  150.4541  130.5331  154.3623 C   0  0  0  0  0  0  0  0  0  0  0  0
  150.7720  129.5554  155.3245 C   0  0  0  0  0  0  0  0  0  0  0  0
  151.4908  127.0289  158.2358 H   0  0  0  0  0  0  0  0  0  0  0  0
  152.3502  127.8022  156.9091 H   0  0  0  0  0  0  0  0  0  0  0  0
  150.7493  127.0704  156.6407 H   0  0  0  0  0  0  0  0  0  0  0  0
  149.6238  131.1620  158.1085 H   0  0  0  0  0  0  0  0  0  0  0  0
  149.0607  132.8764  156.4193 H   0  0  0  0  0  0  0  0  0  0  0  0
  150.3735  133.1719  153.2430 H   0  0  0  0  0  0  0  0  0  0  0  0
  148.9558  132.3160  151.6540 H   0  0  0  0  0  0  0  0  0  0  0  0
  148.1728  131.2613  152.8462 H   0  0  0  0  0  0  0  0  0  0  0  0
  147.0487  131.6485  150.5645 H   0  0  0  0  0  0  0  0  0  0  0  0
  145.0397  131.4638  149.1371 H   0  0  0  0  0  0  0  0  0  0  0  0
  143.0155  132.8196  149.6345 H   0  0  0  0  0  0  0  0  0  0  0  0
  142.9996  134.3759  151.5736 H   0  0  0  0  0  0  0  0  0  0  0  0
  144.9859  134.5883  153.0219 H   0  0  0  0  0  0  0  0  0  0  0  0
  148.3832  136.7935  154.9469 H   0  0  0  0  0  0  0  0  0  0  0  0
  147.2912  135.6525  155.6331 H   0  0  0  0  0  0  0  0  0  0  0  0
  149.5319  137.5831  160.6026 H   0  0  0  0  0  0  0  0  0  0  0  0
  146.0940  137.0065  160.0903 H   0  0  0  0  0  0  0  0  0  0  0  0
  145.8668  134.6553  160.4352 H   0  0  0  0  0  0  0  0  0  0  0  0
  147.6273  134.4426  160.3391 H   0  0  0  0  0  0  0  0  0  0  0  0
  145.9829  135.2072  162.7633 H   0  0  0  0  0  0  0  0  0  0  0  0
  147.3371  134.0713  162.6916 H   0  0  0  0  0  0  0  0  0  0  0  0
  147.8449  136.5560  163.5749 H   0  0  0  0  0  0  0  0  0  0  0  0
  148.9215  135.9124  162.3267 H   0  0  0  0  0  0  0  0  0  0  0  0
  150.6948  130.3482  153.3256 H   0  0  0  0  0  0  0  0  0  0  0  0
  151.2470  128.6473  154.9859 H   0  0  0  0  0  0  0  0  0  0  0  0
  1  2  1  0  0  0  0
  1 37  1  0  0  0  0
  1 38  1  0  0  0  0
  1 39  1  0  0  0  0
  2  3  1  0  0  0  0
  3 36  1  0  0  0  0
  3  4  2  0  0  0  0
  4  5  1  0  0  0  0
  4 40  1  0  0  0  0
  5  6  2  0  0  0  0
  5 41  1  0  0  0  0
  6  7  1  0  0  0  0
  6 35  1  0  0  0  0
  7 17  1  0  0  0  0
  7  8  1  0  0  0  0
  7 42  1  0  0  0  0
  8  9  1  0  0  0  0
  8 43  1  0  0  0  0
  8 44  1  0  0  0  0
  9 10  1  0  0  0  0
  9 16  2  0  0  0  0
 10 15  1  0  0  0  0
 10 11  2  0  0  0  0
 11 12  1  0  0  0  0
 11 45  1  0  0  0  0
 12 13  2  0  0  0  0
 12 46  1  0  0  0  0
 13 14  1  0  0  0  0
 13 47  1  0  0  0  0
 14 15  2  0  0  0  0
 14 48  1  0  0  0  0
 15 49  1  0  0  0  0
 16 17  1  0  0  0  0
 17 18  1  0  0  0  0
 18 19  2  0  0  0  0
 18 20  1  0  0  0  0
 20 21  1  0  0  0  0
 20 50  1  0  0  0  0
 20 51  1  0  0  0  0
 21 33  1  0  0  0  0
 21 22  1  0  0  0  0
 22 23  2  0  0  0  0
 22 24  1  0  0  0  0
 24 25  1  0  0  0  0
 24 26  2  0  0  0  0
 26 27  1  0  0  0  0
 26 52  1  0  0  0  0
 27 28  1  0  0  0  0
 27 33  1  0  0  0  0
 28 32  1  0  0  0  0
 28 29  1  0  0  0  0
 28 53  1  0  0  0  0
 29 30  1  0  0  0  0
 29 54  1  0  0  0  0
 29 55  1  0  0  0  0
 30 31  1  0  0  0  0
 30 56  1  0  0  0  0
 30 57  1  0  0  0  0
 31 32  1  0  0  0  0
 31 58  1  0  0  0  0
 31 59  1  0  0  0  0
 33 34  2  0  0  0  0
 35 36  2  0  0  0  0
 35 60  1  0  0  0  0
 36 61  1  0  0  0  0
M  END
> <s_m_source_file>
AV-unprocessed.smi

> <i_m_source_file_index>
24

> <i_lp_mmshare_version>
43012

> <i_f3d_flags>
0

> <s_epik_input>
W0NIM11PYzFbY0hdW2NIXWMoW2NIXVtjSF0xKVtDQEBIXTJbQ0gyXUMoYzNbY0hdW2NIXVtjSF1bY0hdW2NIXTMpPU5OMkMoPU8pW0NIMl1uNGMoPU8pYyhGKVtjSF1uKGM0PU8pW0NAQEhdNVtDSDJdW0NIMl1bQ0gyXU81

> <s_epik_cmdline>
J2VwaWtfcHl0aG9uJywgJy1waCcsICc3LjAnLCAnLXRuJywgJzgnLCAnLW1hJywgJzIwMCcsICctbWV0YWxfYmluZGluZycsICctaW1hZScsICc8aW5maWxlLm1hZT4nLCAnLW9tYWUnLCAnPG91dGZpbGUubWFlPic=

> <r_lp_tautomer_probability>
1

> <r_epik_Ionization_Penalty>
1.46326e-08

> <r_epik_Ionization_Penalty_Charging>
4.53232e-09

> <r_epik_Ionization_Penalty_Neutral>
1.01002e-08

> <r_epik_State_Penalty>
-0

> <r_epik_Charging_Adjusted_Penalty>
4.53232e-09

> <i_epik_Tot_Q>
0

> <i_epik_Tot_abs_Q>
0

> <r_epik_Metal_State_Penalty>
-0

> <b_epik_Metal_Only>
0

> <s_epik_Chemistry_Notes>
This compound has an imine and may undergo hydrolysis. This compound contains an acetal/aminal-like group ( X-CH(R)-Y where X, Y are N, S, or O) that may be acid/base labile, releasing an aldehyde.

> <s_lp_Force_Field>
OPLS_2005

> <r_lp_Energy>
49.9994

> <b_lp_Chiralities_Consistent>
1

> <s_lp_Variant>
AV-unprocessed.smi:24-4

> <Gold.Version>
5.8.1

> <Gold.Id.Protein>
6NUR|6NUR_protein|mol2

> <Gold.PLP.Fitness>
52.6788

> <Gold.PLP.PLP>
-49.6741

> <Gold.PLP.part.hbond>
-2.0000

> <Gold.PLP.part.metal>
0.0000

> <Gold.PLP.part.buried>
-3.4752

> <Gold.PLP.part.nonpolar>
-44.7875

> <Gold.PLP.part.repulsive>
0.1749

> <Gold.PLP.ligand.clash>
0.0000

> <Gold.PLP.ligand.torsion>
0.6255

> <Gold.PLP.Chemscore.Hbond>
1.3918

> <Gold.PLP.Chemscore.CHOScore>
0.0000

> <Gold.PLP.Chemscore.Metal>
0.0000

> <Gold.Chemscore.Hbonds>
donor molecule, donor type, donor heavy atom, donor atom, acceptor molecule, acceptor atom, score
      P1  H  6931  6943       L1    32  0.52
      P1  H  6934  6947       L1    32  0.68

> <Gold.PLP.Chemscore.Internal.Correction>
0.0805

> <Gold.Rescore>
     Score         DG    S(hbond)    S(metal)    S(lipo)     H(rot)  DE(clash)    DE(int)     intcor
      9.13     -17.35       0.91        0.00     118.77       1.98       1.28       6.94       ----

> <Gold.Chemscore.Fitness>
9.1274

> <Gold.Chemscore.DG>
-17.3519

> <Gold.Chemscore.ZeroCoef>
-5.4800

> <Gold.Chemscore.Hbond>
0.9076

> <Gold.Chemscore.Metal>
0.0000

> <Gold.Chemscore.Lipo>
118.7742

> <Gold.Chemscore.Internal_Hbond>
0.0000

> <Gold.Chemscore.DEClash>
1.2816

> <Gold.Chemscore.DEInternal>
6.9429

> <Gold.Chemscore.Rot>
1.9750

> <Gold.Chemscore.Internal.Correction>
   9.000000E+99

> <Gold.Chemscore.Hbonds>
donor molecule, donor type, donor heavy atom, donor atom, acceptor molecule, acceptor atom, score
      P1  H  6931  6943       L1    32  0.03
      P1  H  6934  6947       L1    32  0.09

> <Gold.Chemscore.Hbond.Weighted>
-3.0314

> <Gold.Chemscore.Metal.Weighted>
-0.0000

> <Gold.Chemscore.Lipo.Weighted>
-13.8966

> <Gold.Chemscore.Internal_Hbond.Weighted>
0.0000

> <Gold.Chemscore.DEClash.Weighted>
1.2816

> <Gold.Chemscore.DEInternal.Weighted>
6.9429

> <Gold.Chemscore.Rot.Weighted>
5.0561

> <Gold.Chemscore.Internal.Correction.Weighted>
   9.000000E+99

> <Gold.Protein.RotatedTorsions>
[ 6907 6896 6895 6894 ] final    7.86 input  -60.11 | X-H torsion
[ 7974 7965 7964 7962 ] final   72.32 input  175.53 | X-H torsion
[ 8008 7997 7996 7995 ] final   22.19 input   59.86 | X-H torsion
[ 10167 10162 10161 10158 ] final   -8.22 input  -65.29 | X-H torsion
[ 10718 10713 10712 10709 ] final -102.88 input   66.30 | X-H torsion
[ 10763 10752 10751 10750 ] final  -98.39 input  -60.55 | X-H torsion
[ 11005 11000 10999 10996 ] final    8.86 input  -57.11 | X-H torsion

> <Gold.Protein.ActiveResidues>
 VAL166  LYS551  ARG553  GLY616  TRP617  ASP618  TYR619  PRO620  LYS621  CYS622 
 ASP623  PHE694  ASN695  SER759  ASP760  ASP761  ALA762  ILE779  LEU786  VAL792 
 PHE793  MET794  SER795  GLU796  ALA797  LYS798  CYS799  TRP800  GLU811  SER814 

> <Gold.Protein.RotatedAtoms>
  151.6967  135.0937  160.0243 H   0  0  0  0  0  0  0  0  0  0  0  0  # atno 6907 bound_to 6896
  152.3745  133.6459  159.6121 H   0  0  0  0  0  0  0  0  0  0  0  0  # atno 6908 bound_to 6896
  150.7699  133.9132  159.3417 H   0  0  0  0  0  0  0  0  0  0  0  0  # atno 6909 bound_to 6896
  145.7549  139.2775  143.1410 H   0  0  0  0  0  0  0  0  0  0  0  0  # atno 7974 bound_to 7965
  154.9620  140.3079  155.5026 H   0  0  0  0  0  0  0  0  0  0  0  0  # atno 8008 bound_to 7997
  156.2976  140.2299  156.4645 H   0  0  0  0  0  0  0  0  0  0  0  0  # atno 8009 bound_to 7997
  154.7956  140.0437  157.1222 H   0  0  0  0  0  0  0  0  0  0  0  0  # atno 8010 bound_to 7997
  140.7052  143.5993  150.8814 H   0  0  0  0  0  0  0  0  0  0  0  0  # atno 10167 bound_to 10162
  156.0245  130.5441  150.7172 H   0  0  0  0  0  0  0  0  0  0  0  0  # atno 10718 bound_to 10713
  154.7410  135.5011  153.9123 H   0  0  0  0  0  0  0  0  0  0  0  0  # atno 10763 bound_to 10752
  153.1043  135.6693  153.9623 H   0  0  0  0  0  0  0  0  0  0  0  0  # atno 10764 bound_to 10752
  153.9400  135.3069  155.3422 H   0  0  0  0  0  0  0  0  0  0  0  0  # atno 10765 bound_to 10752
  140.5323  134.0455  155.7877 H   0  0  0  0  0  0  0  0  0  0  0  0  # atno 11005 bound_to 11000
  146.0321  140.8248  142.9871 LP  0  0  0  0  0  0  0  0  0  0  0  0  # atno 17320 bound_to 7965
  144.6842  140.2784  143.7296 LP  0  0  0  0  0  0  0  0  0  0  0  0  # atno 17321 bound_to 7965
  139.9718  143.6048  152.2971 LP  0  0  0  0  0  0  0  0  0  0  0  0  # atno 17342 bound_to 10162
  139.6638  144.7662  151.1912 LP  0  0  0  0  0  0  0  0  0  0  0  0  # atno 17343 bound_to 10162
  157.4796  131.0901  151.0551 LP  0  0  0  0  0  0  0  0  0  0  0  0  # atno 17370 bound_to 10713
  157.0988  130.5973  149.5455 LP  0  0  0  0  0  0  0  0  0  0  0  0  # atno 17371 bound_to 10713
  141.1274  133.9359  157.2606 LP  0  0  0  0  0  0  0  0  0  0  0  0  # atno 17394 bound_to 11000
  139.9548  135.0168  156.9096 LP  0  0  0  0  0  0  0  0  0  0  0  0  # atno 17395 bound_to 11000

$$$$
