AV-unprocessed.smi:3032|AV-procd|sdf|11557|dock6
  -GOLD-   2272016523D 1   1.00000     0.00000
 Structure written by MMmdl.
 37 38  0  0  0  0  0  0  0  0  1 V2000
  151.8069  145.6633  159.8004 C   0  0  0  0  0  0  0  0  0  0  0  0
  151.5808  144.1730  159.5095 C   0  0  2  0  0  0  0  0  0  0  0  0
  152.7274  143.3094  160.0670 C   0  0  0  0  0  0  0  0  0  0  0  0
  152.4918  141.8153  159.7974 C   0  0  0  0  0  0  0  0  0  0  0  0
  152.2588  141.5343  158.2991 C   0  0  0  0  0  0  0  0  0  0  0  0
  151.1679  142.4277  157.6589 C   0  0  1  0  0  0  0  0  0  0  0  0
  149.7286  141.9991  157.9999 C   0  0  0  0  0  0  0  0  0  0  0  0
  149.5031  141.0135  158.7019 O   0  0  0  0  0  0  0  0  0  0  0  0
  148.7533  142.7705  157.4959 N   0  0  0  0  0  0  0  0  0  0  0  0
  147.3261  142.6086  157.7597 C   0  0  0  0  0  0  0  0  0  0  0  0
  146.4726  142.5517  156.4751 C   0  0  0  0  0  0  0  0  0  0  0  0
  147.1748  141.9373  155.3043 C   0  0  0  0  0  0  0  0  0  0  0  0
  148.3335  142.4104  154.8400 N   0  0  0  0  0  0  0  0  0  0  0  0
  148.7423  141.6501  153.8031 N   0  0  0  0  0  0  0  0  0  0  0  0
  147.7643  140.7505  153.7154 C   0  0  0  0  0  0  0  0  0  0  0  0
  146.7530  140.8751  154.6269 N   0  0  0  0  0  0  0  0  0  0  0  0
  151.4139  143.9155  157.9978 C   0  0  0  0  0  0  0  0  0  0  0  0
  148.8591  143.2001  155.1874 H   0  0  0  0  0  0  0  0  0  0  0  0
  152.7190  146.0266  159.3260 H   0  0  0  0  0  0  0  0  0  0  0  0
  151.8926  145.8456  160.8718 H   0  0  0  0  0  0  0  0  0  0  0  0
  150.9767  146.2655  159.4303 H   0  0  0  0  0  0  0  0  0  0  0  0
  150.6594  143.8822  160.0157 H   0  0  0  0  0  0  0  0  0  0  0  0
  153.6721  143.6151  159.6153 H   0  0  0  0  0  0  0  0  0  0  0  0
  152.8316  143.4731  161.1402 H   0  0  0  0  0  0  0  0  0  0  0  0
  153.3496  141.2403  160.1470 H   0  0  0  0  0  0  0  0  0  0  0  0
  151.6434  141.4700  160.3874 H   0  0  0  0  0  0  0  0  0  0  0  0
  153.1963  141.6969  157.7657 H   0  0  0  0  0  0  0  0  0  0  0  0
  152.0178  140.4801  158.1560 H   0  0  0  0  0  0  0  0  0  0  0  0
  151.2649  142.3172  156.5774 H   0  0  0  0  0  0  0  0  0  0  0  0
  149.0220  143.5581  156.9239 H   0  0  0  0  0  0  0  0  0  0  0  0
  147.2091  141.6731  158.3071 H   0  0  0  0  0  0  0  0  0  0  0  0
  146.9707  143.3995  158.4213 H   0  0  0  0  0  0  0  0  0  0  0  0
  145.5570  141.9914  156.6667 H   0  0  0  0  0  0  0  0  0  0  0  0
  146.1560  143.5585  156.1997 H   0  0  0  0  0  0  0  0  0  0  0  0
  147.7798  139.9724  152.9666 H   0  0  0  0  0  0  0  0  0  0  0  0
  150.5998  144.5279  157.6067 H   0  0  0  0  0  0  0  0  0  0  0  0
  152.3102  144.2520  157.4752 H   0  0  0  0  0  0  0  0  0  0  0  0
  1  2  1  0  0  0  0
  1 19  1  0  0  0  0
  1 20  1  0  0  0  0
  1 21  1  0  0  0  0
  2 17  1  0  0  0  0
  2  3  1  0  0  0  0
  2 22  1  0  0  0  0
  3  4  1  0  0  0  0
  3 23  1  0  0  0  0
  3 24  1  0  0  0  0
  4  5  1  0  0  0  0
  4 25  1  0  0  0  0
  4 26  1  0  0  0  0
  5  6  1  0  0  0  0
  5 27  1  0  0  0  0
  5 28  1  0  0  0  0
  6  7  1  0  0  0  0
  6 17  1  0  0  0  0
  6 29  1  0  0  0  0
  7  8  2  0  0  0  0
  7  9  1  0  0  0  0
  9 10  1  0  0  0  0
  9 30  1  0  0  0  0
 10 11  1  0  0  0  0
 10 31  1  0  0  0  0
 10 32  1  0  0  0  0
 11 33  1  0  0  0  0
 11 34  1  0  0  0  0
 11 12  1  0  0  0  0
 12 16  2  0  0  0  0
 12 13  1  0  0  0  0
 13 18  1  0  0  0  0
 13 14  1  0  0  0  0
 14 15  2  0  0  0  0
 15 16  1  0  0  0  0
 15 35  1  0  0  0  0
 17 36  1  0  0  0  0
 17 37  1  0  0  0  0
M  END
> <s_m_source_file>
AV-unprocessed.smi

> <i_m_source_file_index>
3032

> <i_lp_mmshare_version>
43012

> <i_f3d_flags>
0

> <s_epik_input>
W0NIM11bQ0BASF0xW0NIMl1bQ0gyXVtDSDJdW0NASF0oW0NIMl0xKUMoPU8pW05IXVtDSDJdW0NIMl1jMm5uW2NIXVtuSF0y

> <s_epik_cmdline>
J2VwaWtfcHl0aG9uJywgJy1waCcsICc3LjAnLCAnLXRuJywgJzgnLCAnLW1hJywgJzIwMCcsICctbWV0YWxfYmluZGluZycsICctaW1hZScsICc8aW5maWxlLm1hZT4nLCAnLW9tYWUnLCAnPG91dGZpbGUubWFlPic=

> <r_lp_tautomer_probability>
0.948284

> <r_epik_Ionization_Penalty>
0.000474052

> <r_epik_Ionization_Penalty_Charging>
0

> <r_epik_Ionization_Penalty_Neutral>
0.000474052

> <r_epik_State_Penalty>
0.271807

> <r_epik_Charging_Adjusted_Penalty>
0.271807

> <i_epik_Tot_Q>
0

> <i_epik_Tot_abs_Q>
0

> <r_epik_Metal_State_Penalty>
0.397201

> <b_epik_Metal_Only>
0

> <s_lp_Force_Field>
OPLS_2005

> <r_lp_Energy>
8.45965

> <b_lp_Chiralities_Consistent>
1

> <s_lp_Variant>
AV-unprocessed.smi:3032-1

> <Gold.Version>
5.8.1

> <Gold.Id.Protein>
6NUR|6NUR_protein|mol2

> <Gold.PLP.Fitness>
43.6415

> <Gold.PLP.PLP>
-34.0200

> <Gold.PLP.part.hbond>
-4.0855

> <Gold.PLP.part.metal>
0.0000

> <Gold.PLP.part.buried>
-2.6696

> <Gold.PLP.part.nonpolar>
-28.0598

> <Gold.PLP.part.repulsive>
0.5569

> <Gold.PLP.ligand.clash>
0.0000

> <Gold.PLP.ligand.torsion>
0.2732

> <Gold.PLP.Chemscore.Hbond>
2.5680

> <Gold.PLP.Chemscore.CHOScore>
0.8054

> <Gold.PLP.Chemscore.Metal>
0.0000

> <Gold.Chemscore.Hbonds>
donor molecule, donor type, donor heavy atom, donor atom, acceptor molecule, acceptor atom, score
      L1  H     9    30       P1  8028  1.00
      L1  H    13    18       P1  8028  0.96
      P1  H  8011  8017       L1    14  0.64
      L1  C    15    35       P1  7957  0.72

> <Gold.PLP.Chemscore.Internal.Correction>
0.0476

> <Gold.Rescore>
     Score         DG    S(hbond)    S(metal)    S(lipo)     H(rot)  DE(clash)    DE(int)     intcor
     14.08     -15.75       2.19        0.00      74.45       2.25       0.07       1.60       ----

> <Gold.Chemscore.Fitness>
14.0806

> <Gold.Chemscore.DG>
-15.7501

> <Gold.Chemscore.ZeroCoef>
-5.4800

> <Gold.Chemscore.Hbond>
2.1917

> <Gold.Chemscore.Metal>
0.0000

> <Gold.Chemscore.Lipo>
74.4468

> <Gold.Chemscore.Internal_Hbond>
0.0000

> <Gold.Chemscore.DEClash>
0.0665

> <Gold.Chemscore.DEInternal>
1.6030

> <Gold.Chemscore.Rot>
2.2501

> <Gold.Chemscore.Internal.Correction>
   9.000000E+99

> <Gold.Chemscore.Hbonds>
donor molecule, donor type, donor heavy atom, donor atom, acceptor molecule, acceptor atom, score
      L1  H     9    30       P1  8028  0.65
      L1  H    13    18       P1  8028  0.90
      P1  H  8011  8017       L1    14  0.62

> <Gold.Chemscore.Hbond.Weighted>
-7.3201

> <Gold.Chemscore.Metal.Weighted>
-0.0000

> <Gold.Chemscore.Lipo.Weighted>
-8.7103

> <Gold.Chemscore.Internal_Hbond.Weighted>
0.0000

> <Gold.Chemscore.DEClash.Weighted>
0.0665

> <Gold.Chemscore.DEInternal.Weighted>
1.6030

> <Gold.Chemscore.Rot.Weighted>
5.7603

> <Gold.Chemscore.Internal.Correction.Weighted>
   9.000000E+99

> <Gold.Protein.RotatedTorsions>
[ 6907 6896 6895 6894 ] final   73.34 input  -60.11 | X-H torsion
[ 7974 7965 7964 7962 ] final  -91.02 input  175.53 | X-H torsion
[ 8008 7997 7996 7995 ] final   28.26 input   59.86 | X-H torsion
[ 10167 10162 10161 10158 ] final   63.34 input  -65.29 | X-H torsion
[ 10718 10713 10712 10709 ] final  -30.35 input   66.30 | X-H torsion
[ 10763 10752 10751 10750 ] final  -34.37 input  -60.55 | X-H torsion
[ 11005 11000 10999 10996 ] final  168.96 input  -57.11 | X-H torsion

> <Gold.Protein.ActiveResidues>
 VAL166  LYS551  ARG553  GLY616  TRP617  ASP618  TYR619  PRO620  LYS621  CYS622 
 ASP623  PHE694  ASN695  SER759  ASP760  ASP761  ALA762  ILE779  LEU786  VAL792 
 PHE793  MET794  SER795  GLU796  ALA797  LYS798  CYS799  TRP800  GLU811  SER814 

> <Gold.Protein.RotatedAtoms>
  152.4918  134.4436  159.9551 H   0  0  0  0  0  0  0  0  0  0  0  0  # atno 6907 bound_to 6896
  151.4422  133.3634  159.2791 H   0  0  0  0  0  0  0  0  0  0  0  0  # atno 6908 bound_to 6896
  150.9080  134.8519  159.7465 H   0  0  0  0  0  0  0  0  0  0  0  0  # atno 6909 bound_to 6896
  145.4187  140.9550  143.2193 H   0  0  0  0  0  0  0  0  0  0  0  0  # atno 7974 bound_to 7965
  155.0558  140.3185  155.4676 H   0  0  0  0  0  0  0  0  0  0  0  0  # atno 8008 bound_to 7997
  156.2824  140.2137  156.5629 H   0  0  0  0  0  0  0  0  0  0  0  0  # atno 8009 bound_to 7997
  154.7172  140.0493  157.0593 H   0  0  0  0  0  0  0  0  0  0  0  0  # atno 8010 bound_to 7997
  140.1341  144.4615  150.6848 H   0  0  0  0  0  0  0  0  0  0  0  0  # atno 10167 bound_to 10162
  156.4009  130.4390  149.7323 H   0  0  0  0  0  0  0  0  0  0  0  0  # atno 10718 bound_to 10713
  153.8455  135.6853  153.4798 H   0  0  0  0  0  0  0  0  0  0  0  0  # atno 10763 bound_to 10752
  153.1428  135.4650  154.9519 H   0  0  0  0  0  0  0  0  0  0  0  0  # atno 10764 bound_to 10752
  154.7826  135.3274  154.7904 H   0  0  0  0  0  0  0  0  0  0  0  0  # atno 10765 bound_to 10752
  140.2927  134.7660  157.3852 H   0  0  0  0  0  0  0  0  0  0  0  0  # atno 11005 bound_to 11000
  144.8260  139.5709  143.6965 LP  0  0  0  0  0  0  0  0  0  0  0  0  # atno 17320 bound_to 7965
  146.2668  139.6538  142.9324 LP  0  0  0  0  0  0  0  0  0  0  0  0  # atno 17321 bound_to 7965
  140.6799  143.2322  151.5410 LP  0  0  0  0  0  0  0  0  0  0  0  0  # atno 17342 bound_to 10162
  139.5505  144.2409  152.1521 LP  0  0  0  0  0  0  0  0  0  0  0  0  # atno 17343 bound_to 10162
  156.4340  130.7829  151.2849 LP  0  0  0  0  0  0  0  0  0  0  0  0  # atno 17370 bound_to 10713
  157.7504  131.0145  150.3467 LP  0  0  0  0  0  0  0  0  0  0  0  0  # atno 17371 bound_to 10713
  140.1180  134.5257  155.8208 LP  0  0  0  0  0  0  0  0  0  0  0  0  # atno 17394 bound_to 11000
  141.2143  133.6746  156.6813 LP  0  0  0  0  0  0  0  0  0  0  0  0  # atno 17395 bound_to 11000

$$$$
