AV-unprocessed.smi:3324|AV-procd|sdf|12781|dock3
  -GOLD-   2272019123D 1   1.00000     0.00000
 Structure written by MMmdl.
 31 31  0  0  0  0  0  0  0  0  2 V2000
  144.5448  137.5048  152.8348 O   0  0  0  0  0  0  0  0  0  0  0  0
  145.6526  137.3436  152.3215 C   0  0  0  0  0  0  0  0  0  0  0  0
  146.4962  138.5444  151.8880 C   0  0  0  0  0  0  0  0  0  0  0  0
  147.8738  138.4846  152.4193 N   0  3  0  0  0  0  0  0  0  0  0  0
  147.9731  138.7506  153.8669 C   0  0  0  0  0  0  0  0  0  0  0  0
  148.3197  140.2225  154.1340 C   0  0  0  0  0  0  0  0  0  0  0  0
  149.5732  140.3581  154.8503 N   0  0  0  0  0  0  0  0  0  0  0  0
  150.0460  141.4431  155.5582 C   0  0  0  0  0  0  0  0  0  0  0  0
  151.2718  141.1012  156.0535 C   0  0  0  0  0  0  0  0  0  0  0  0
  151.4663  139.7710  155.5872 C   0  0  0  0  0  0  0  0  0  0  0  0
  150.4474  139.3291  154.8671 N   0  0  0  0  0  0  0  0  0  0  0  0
  146.1956  136.1361  152.1066 N   0  0  0  0  0  0  0  0  0  0  0  0
  145.5602  134.8597  152.4209 C   0  0  0  0  0  0  0  0  0  0  0  0
  145.1095  134.1134  151.1536 C   0  0  0  0  0  0  0  0  0  0  0  0
  144.5019  134.9706  150.3345 F   0  0  0  0  0  0  0  0  0  0  0  0
  146.1539  133.5833  150.5169 F   0  0  0  0  0  0  0  0  0  0  0  0
  144.2515  133.1438  151.4716 F   0  0  0  0  0  0  0  0  0  0  0  0
  146.5285  138.5811  150.7983 H   0  0  0  0  0  0  0  0  0  0  0  0
  146.0148  139.4604  152.2337 H   0  0  0  0  0  0  0  0  0  0  0  0
  148.2456  137.5637  152.2339 H   0  0  0  0  0  0  0  0  0  0  0  0
  147.0264  138.4974  154.3461 H   0  0  0  0  0  0  0  0  0  0  0  0
  148.7366  138.0999  154.2955 H   0  0  0  0  0  0  0  0  0  0  0  0
  148.3963  140.7749  153.1961 H   0  0  0  0  0  0  0  0  0  0  0  0
  147.5319  140.6989  154.7194 H   0  0  0  0  0  0  0  0  0  0  0  0
  149.4786  142.3577  155.6504 H   0  0  0  0  0  0  0  0  0  0  0  0
  151.9306  141.7089  156.6561 H   0  0  0  0  0  0  0  0  0  0  0  0
  152.3112  139.1178  155.7492 H   0  0  0  0  0  0  0  0  0  0  0  0
  147.1096  136.0926  151.6790 H   0  0  0  0  0  0  0  0  0  0  0  0
  146.2845  134.2522  152.9644 H   0  0  0  0  0  0  0  0  0  0  0  0
  144.7161  135.0059  153.0970 H   0  0  0  0  0  0  0  0  0  0  0  0
  148.4359  139.1618  151.9234 H   0  0  0  0  0  0  0  0  0  0  0  0
  1  2  2  0  0  0  0
  2  3  1  0  0  0  0
  2 12  1  0  0  0  0
  3  4  1  0  0  0  0
  3 18  1  0  0  0  0
  3 19  1  0  0  0  0
  4  5  1  0  0  0  0
  4 20  1  0  0  0  0
  4 31  1  0  0  0  0
  5  6  1  0  0  0  0
  5 21  1  0  0  0  0
  5 22  1  0  0  0  0
  6  7  1  0  0  0  0
  6 23  1  0  0  0  0
  6 24  1  0  0  0  0
  7 11  1  0  0  0  0
  7  8  1  0  0  0  0
  8  9  2  0  0  0  0
  8 25  1  0  0  0  0
  9 10  1  0  0  0  0
  9 26  1  0  0  0  0
 10 11  2  0  0  0  0
 10 27  1  0  0  0  0
 12 13  1  0  0  0  0
 12 28  1  0  0  0  0
 13 14  1  0  0  0  0
 13 29  1  0  0  0  0
 13 30  1  0  0  0  0
 14 15  1  0  0  0  0
 14 16  1  0  0  0  0
 14 17  1  0  0  0  0
M  CHG  1   4   1
M  END
> <s_m_source_file>
AV-unprocessed.smi

> <i_m_source_file_index>
3324

> <i_lp_mmshare_version>
43012

> <i_f3d_flags>
0

> <s_epik_input>
RkMoRikoRilbQ0gyXVtOSF1DKD1PKVtDSDJdW05IXVtDSDJdW0NIMl1uMVtjSF1bY0hdW2NIXW4x

> <s_epik_cmdline>
J2VwaWtfcHl0aG9uJywgJy1waCcsICc3LjAnLCAnLXRuJywgJzgnLCAnLW1hJywgJzIwMCcsICctbWV0YWxfYmluZGluZycsICctaW1hZScsICc8aW5maWxlLm1hZT4nLCAnLW9tYWUnLCAnPG91dGZpbGUubWFlPic=

> <r_lp_tautomer_probability>
1

> <r_epik_Ionization_Penalty>
0.310414

> <r_epik_Ionization_Penalty_Charging>
0.310394

> <r_epik_Ionization_Penalty_Neutral>
2.02819e-05

> <r_epik_State_Penalty>
0.304907

> <r_epik_Charging_Adjusted_Penalty>
0.6153

> <i_epik_Tot_Q>
1

> <i_epik_Tot_abs_Q>
1

> <r_epik_Metal_State_Penalty>
0.315528

> <b_epik_Metal_Only>
0

> <s_lp_Force_Field>
OPLS_2005

> <r_lp_Energy>
1.82642

> <b_lp_Chiralities_Consistent>
1

> <s_lp_Variant>
AV-unprocessed.smi:3324-1

> <Gold.Version>
5.8.1

> <Gold.Id.Protein>
6NUR|6NUR_protein|mol2

> <Gold.PLP.Fitness>
46.7565

> <Gold.PLP.PLP>
-34.1053

> <Gold.PLP.part.hbond>
-3.0000

> <Gold.PLP.part.metal>
0.0000

> <Gold.PLP.part.buried>
-3.8315

> <Gold.PLP.part.nonpolar>
-28.3020

> <Gold.PLP.part.repulsive>
0.6638

> <Gold.PLP.ligand.clash>
0.0000

> <Gold.PLP.ligand.torsion>
1.2184

> <Gold.PLP.Chemscore.Hbond>
4.0000

> <Gold.PLP.Chemscore.CHOScore>
1.0000

> <Gold.PLP.Chemscore.Metal>
0.0000

> <Gold.Chemscore.Hbonds>
donor molecule, donor type, donor heavy atom, donor atom, acceptor molecule, acceptor atom, score
      L1  H     4    20       P1  7948  2.00
      L1  H     4    31       P1  7957  1.00
      L1  H    12    28       P1  7948  1.00
      L1  C     8    25       P1  8028  1.00

> <Gold.PLP.Chemscore.Internal.Correction>
0.0880

> <Gold.Rescore>
     Score         DG    S(hbond)    S(metal)    S(lipo)     H(rot)  DE(clash)    DE(int)     intcor
     12.98     -13.87       2.96        0.00      50.82       2.91       0.03       0.85       ----

> <Gold.Chemscore.Fitness>
12.9848

> <Gold.Chemscore.DG>
-13.8737

> <Gold.Chemscore.ZeroCoef>
-5.4800

> <Gold.Chemscore.Hbond>
2.9626

> <Gold.Chemscore.Metal>
0.0000

> <Gold.Chemscore.Lipo>
50.8186

> <Gold.Chemscore.Internal_Hbond>
0.0000

> <Gold.Chemscore.DEClash>
0.0347

> <Gold.Chemscore.DEInternal>
0.8542

> <Gold.Chemscore.Rot>
2.9091

> <Gold.Chemscore.Internal.Correction>
   9.000000E+99

> <Gold.Chemscore.Hbonds>
donor molecule, donor type, donor heavy atom, donor atom, acceptor molecule, acceptor atom, score
      L1  H     4    20       P1  7948  0.93
      L1  H     4    31       P1  7957  0.98
      L1  H    12    28       P1  7948  0.94

> <Gold.Chemscore.Hbond.Weighted>
-9.8951

> <Gold.Chemscore.Metal.Weighted>
-0.0000

> <Gold.Chemscore.Lipo.Weighted>
-5.9458

> <Gold.Chemscore.Internal_Hbond.Weighted>
0.0000

> <Gold.Chemscore.DEClash.Weighted>
0.0347

> <Gold.Chemscore.DEInternal.Weighted>
0.8542

> <Gold.Chemscore.Rot.Weighted>
7.4472

> <Gold.Chemscore.Internal.Correction.Weighted>
   9.000000E+99

> <Gold.Protein.RotatedTorsions>
[ 6907 6896 6895 6894 ] final -172.98 input  -60.11 | X-H torsion
[ 7974 7965 7964 7962 ] final -165.07 input  175.53 | X-H torsion
[ 8008 7997 7996 7995 ] final  -72.78 input   59.86 | X-H torsion
[ 10167 10162 10161 10158 ] final  101.05 input  -65.29 | X-H torsion
[ 10718 10713 10712 10709 ] final  151.69 input   66.30 | X-H torsion
[ 10763 10752 10751 10750 ] final  173.62 input  -60.55 | X-H torsion
[ 11005 11000 10999 10996 ] final -146.06 input  -57.11 | X-H torsion

> <Gold.Protein.ActiveResidues>
 VAL166  LYS551  ARG553  GLY616  TRP617  ASP618  TYR619  PRO620  LYS621  CYS622 
 ASP623  PHE694  ASN695  SER759  ASP760  ASP761  ALA762  ILE779  LEU786  VAL792 
 PHE793  MET794  SER795  GLU796  ALA797  LYS798  CYS799  TRP800  GLU811  SER814 

> <Gold.Protein.RotatedAtoms>
  151.5488  133.3421  159.2948 H   0  0  0  0  0  0  0  0  0  0  0  0  # atno 6907 bound_to 6896
  150.8491  134.7812  159.7005 H   0  0  0  0  0  0  0  0  0  0  0  0  # atno 6908 bound_to 6896
  152.4541  134.5337  159.9870 H   0  0  0  0  0  0  0  0  0  0  0  0  # atno 6909 bound_to 6896
  144.7280  140.2868  143.6227 H   0  0  0  0  0  0  0  0  0  0  0  0  # atno 7974 bound_to 7965
  154.5194  140.0791  156.8142 H   0  0  0  0  0  0  0  0  0  0  0  0  # atno 8008 bound_to 7997
  155.3610  140.3418  155.4222 H   0  0  0  0  0  0  0  0  0  0  0  0  # atno 8009 bound_to 7997
  156.1664  140.1605  156.8512 H   0  0  0  0  0  0  0  0  0  0  0  0  # atno 8010 bound_to 7997
  139.7473  144.6994  151.0485 H   0  0  0  0  0  0  0  0  0  0  0  0  # atno 10167 bound_to 10162
  157.2674  131.0810  151.1623 H   0  0  0  0  0  0  0  0  0  0  0  0  # atno 10718 bound_to 10713
  154.4426  135.2762  155.1837 H   0  0  0  0  0  0  0  0  0  0  0  0  # atno 10763 bound_to 10752
  154.3697  135.6111  153.5737 H   0  0  0  0  0  0  0  0  0  0  0  0  # atno 10764 bound_to 10752
  152.9842  135.5854  154.4756 H   0  0  0  0  0  0  0  0  0  0  0  0  # atno 10765 bound_to 10752
  140.7859  134.3025  157.5030 H   0  0  0  0  0  0  0  0  0  0  0  0  # atno 11005 bound_to 11000
  145.7894  139.1921  143.2111 LP  0  0  0  0  0  0  0  0  0  0  0  0  # atno 17320 bound_to 7965
  146.0768  140.7808  142.9661 LP  0  0  0  0  0  0  0  0  0  0  0  0  # atno 17321 bound_to 7965
  140.7793  143.4852  150.9966 LP  0  0  0  0  0  0  0  0  0  0  0  0  # atno 17342 bound_to 10162
  139.8540  143.7401  152.3177 LP  0  0  0  0  0  0  0  0  0  0  0  0  # atno 17343 bound_to 10162
  157.3109  130.6889  149.6215 LP  0  0  0  0  0  0  0  0  0  0  0  0  # atno 17370 bound_to 10713
  155.9663  130.4364  150.5131 LP  0  0  0  0  0  0  0  0  0  0  0  0  # atno 17371 bound_to 10713
  139.8737  134.9346  156.3610 LP  0  0  0  0  0  0  0  0  0  0  0  0  # atno 17394 bound_to 11000
  140.9437  133.7497  156.0180 LP  0  0  0  0  0  0  0  0  0  0  0  0  # atno 17395 bound_to 11000

$$$$
