AV-unprocessed.smi:772|AV-procd|sdf|3685|dock6
  -GOLD-   22720 1103D 1   1.00000     0.00000
 Structure written by MMmdl.
 46 47  0  0  0  0  0  0  0  0  1 V2000
  153.1252  143.8648  163.1305 C   0  0  0  0  0  0  0  0  0  0  0  0
  152.6549  143.7658  161.6945 C   0  0  0  0  0  0  0  0  0  0  0  0
  151.8743  144.7891  161.1165 C   0  0  0  0  0  0  0  0  0  0  0  0
  151.4521  144.6374  159.7819 C   0  0  0  0  0  0  0  0  0  0  0  0
  151.8242  143.4732  159.0793 C   0  0  0  0  0  0  0  0  0  0  0  0
  151.3575  143.2443  157.6523 C   0  0  0  0  0  0  0  0  0  0  0  0
  151.3450  141.7591  157.2413 C   0  0  0  0  0  0  0  0  0  0  0  0
  150.1674  141.4196  156.4453 N   0  0  0  0  0  0  0  0  0  0  0  0
  148.8947  141.4243  156.8805 C   0  0  0  0  0  0  0  0  0  0  0  0
  148.5918  141.7710  158.0233 O   0  0  0  0  0  0  0  0  0  0  0  0
  147.9878  140.9618  155.9830 N   0  0  0  0  0  0  0  0  0  0  0  0
  148.2981  140.3350  154.6883 C   0  0  0  0  0  0  0  0  0  0  0  0
  148.2196  141.4027  153.5862 C   0  0  0  0  0  0  0  0  0  0  0  0
  146.5367  142.0824  153.4566 S   0  0  0  0  0  0  0  0  0  0  0  0
  146.2136  142.4841  155.2109 C   0  0  1  0  0  0  0  0  0  0  0  0
  144.7752  143.0135  155.4395 C   0  0  0  0  0  0  0  0  0  0  0  0
  144.3647  144.1446  154.4780 C   0  0  0  0  0  0  0  0  0  0  0  0
  144.5396  143.4244  156.9031 C   0  0  0  0  0  0  0  0  0  0  0  0
  146.5591  141.2739  156.1069 C   0  0  0  0  0  0  0  0  0  0  0  0
  152.6138  142.5134  159.7478 C   0  0  0  0  0  0  0  0  0  0  0  0
  153.0216  142.6492  161.0275 N   0  0  0  0  0  0  0  0  0  0  0  0
  152.9345  144.8565  163.5415 H   0  0  0  0  0  0  0  0  0  0  0  0
  154.1961  143.6708  163.1964 H   0  0  0  0  0  0  0  0  0  0  0  0
  152.6035  143.1332  163.7481 H   0  0  0  0  0  0  0  0  0  0  0  0
  151.5974  145.6667  161.6818 H   0  0  0  0  0  0  0  0  0  0  0  0
  150.8428  145.3950  159.3115 H   0  0  0  0  0  0  0  0  0  0  0  0
  150.3580  143.6653  157.5391 H   0  0  0  0  0  0  0  0  0  0  0  0
  152.0009  143.8062  156.9738 H   0  0  0  0  0  0  0  0  0  0  0  0
  152.2601  141.5136  156.6997 H   0  0  0  0  0  0  0  0  0  0  0  0
  151.3458  141.1331  158.1336 H   0  0  0  0  0  0  0  0  0  0  0  0
  150.3358  141.1125  155.4986 H   0  0  0  0  0  0  0  0  0  0  0  0
  149.2748  139.8517  154.6679 H   0  0  0  0  0  0  0  0  0  0  0  0
  147.5862  139.5342  154.4828 H   0  0  0  0  0  0  0  0  0  0  0  0
  148.9173  142.2154  153.7919 H   0  0  0  0  0  0  0  0  0  0  0  0
  148.4992  140.9767  152.6225 H   0  0  0  0  0  0  0  0  0  0  0  0
  146.9005  143.2903  155.4739 H   0  0  0  0  0  0  0  0  0  0  0  0
  144.0988  142.1794  155.2480 H   0  0  0  0  0  0  0  0  0  0  0  0
  144.9804  145.0341  154.6117 H   0  0  0  0  0  0  0  0  0  0  0  0
  143.3283  144.4381  154.6471 H   0  0  0  0  0  0  0  0  0  0  0  0
  144.4425  143.8370  153.4358 H   0  0  0  0  0  0  0  0  0  0  0  0
  145.1522  144.2805  157.1860 H   0  0  0  0  0  0  0  0  0  0  0  0
  144.7746  142.6065  157.5848 H   0  0  0  0  0  0  0  0  0  0  0  0
  143.4973  143.6980  157.0694 H   0  0  0  0  0  0  0  0  0  0  0  0
  145.9702  140.4014  155.8222 H   0  0  0  0  0  0  0  0  0  0  0  0
  146.2847  141.4786  157.1431 H   0  0  0  0  0  0  0  0  0  0  0  0
  152.9129  141.6031  159.2491 H   0  0  0  0  0  0  0  0  0  0  0  0
  1  2  1  0  0  0  0
  1 22  1  0  0  0  0
  1 23  1  0  0  0  0
  1 24  1  0  0  0  0
  2 21  1  0  0  0  0
  2  3  2  0  0  0  0
  3  4  1  0  0  0  0
  3 25  1  0  0  0  0
  4  5  2  0  0  0  0
  4 26  1  0  0  0  0
  5  6  1  0  0  0  0
  5 20  1  0  0  0  0
  6  7  1  0  0  0  0
  6 27  1  0  0  0  0
  6 28  1  0  0  0  0
  7  8  1  0  0  0  0
  7 29  1  0  0  0  0
  7 30  1  0  0  0  0
  8  9  1  0  0  0  0
  8 31  1  0  0  0  0
  9 10  2  0  0  0  0
  9 11  1  0  0  0  0
 11 19  1  0  0  0  0
 11 12  1  0  0  0  0
 12 13  1  0  0  0  0
 12 32  1  0  0  0  0
 12 33  1  0  0  0  0
 13 14  1  0  0  0  0
 13 34  1  0  0  0  0
 13 35  1  0  0  0  0
 14 15  1  0  0  0  0
 15 16  1  0  0  0  0
 15 19  1  0  0  0  0
 15 36  1  0  0  0  0
 16 17  1  0  0  0  0
 16 18  1  0  0  0  0
 16 37  1  0  0  0  0
 17 38  1  0  0  0  0
 17 39  1  0  0  0  0
 17 40  1  0  0  0  0
 18 41  1  0  0  0  0
 18 42  1  0  0  0  0
 18 43  1  0  0  0  0
 19 44  1  0  0  0  0
 19 45  1  0  0  0  0
 20 21  2  0  0  0  0
 20 46  1  0  0  0  0
M  END
> <s_m_source_file>
AV-unprocessed.smi

> <i_m_source_file_index>
772

> <i_lp_mmshare_version>
43012

> <i_f3d_flags>
0

> <s_epik_input>
W0NIM11jMVtjSF1bY0hdYyhbY0hdbjEpW0NIMl1bQ0gyXVtOSF1DKD1PKU4yW0NIMl1bQ0gyXVNbQ0BIXShbQ0gyXTIpW0NIXShbQ0gzXSlbQ0gzXQ==

> <s_epik_cmdline>
J2VwaWtfcHl0aG9uJywgJy1waCcsICc3LjAnLCAnLXRuJywgJzgnLCAnLW1hJywgJzIwMCcsICctbWV0YWxfYmluZGluZycsICctaW1hZScsICc8aW5maWxlLm1hZT4nLCAnLW9tYWUnLCAnPG91dGZpbGUubWFlPic=

> <r_epik_Ionization_Penalty>
0.0566916

> <r_epik_Ionization_Penalty_Charging>
0

> <r_epik_Ionization_Penalty_Neutral>
0.0566916

> <r_epik_State_Penalty>
0.0488669

> <r_epik_Charging_Adjusted_Penalty>
0.0488669

> <i_epik_Tot_Q>
0

> <i_epik_Tot_abs_Q>
0

> <r_epik_Metal_State_Penalty>
0.0445784

> <b_epik_Metal_Only>
0

> <s_lp_Force_Field>
OPLS_2005

> <r_lp_Energy>
25.3974

> <b_lp_Chiralities_Consistent>
1

> <s_lp_Variant>
AV-unprocessed.smi:772-1

> <Gold.Version>
5.8.1

> <Gold.Id.Protein>
6NUR|6NUR_protein|mol2

> <Gold.PLP.Fitness>
43.7699

> <Gold.PLP.PLP>
-45.2330

> <Gold.PLP.part.hbond>
-0.1702

> <Gold.PLP.part.metal>
0.0000

> <Gold.PLP.part.buried>
-7.2974

> <Gold.PLP.part.nonpolar>
-36.5469

> <Gold.PLP.part.repulsive>
0.1153

> <Gold.PLP.ligand.clash>
0.0000

> <Gold.PLP.ligand.torsion>
0.7772

> <Gold.PLP.Chemscore.Hbond>
0.0000

> <Gold.PLP.Chemscore.CHOScore>
0.0000

> <Gold.PLP.Chemscore.Metal>
0.0000

> <Gold.PLP.Chemscore.Internal.Correction>
0.0914

> <Gold.Rescore>
     Score         DG    S(hbond)    S(metal)    S(lipo)     H(rot)  DE(clash)    DE(int)     intcor
     15.07     -16.01       0.00        0.00     118.99       1.32       0.27       0.68       ----

> <Gold.Chemscore.Fitness>
15.0683

> <Gold.Chemscore.DG>
-16.0139

> <Gold.Chemscore.ZeroCoef>
-5.4800

> <Gold.Chemscore.Hbond>
0.0000

> <Gold.Chemscore.Metal>
0.0000

> <Gold.Chemscore.Lipo>
118.9873

> <Gold.Chemscore.Internal_Hbond>
0.0000

> <Gold.Chemscore.DEClash>
0.2687

> <Gold.Chemscore.DEInternal>
0.6769

> <Gold.Chemscore.Rot>
1.3233

> <Gold.Chemscore.Internal.Correction>
   9.000000E+99

> <Gold.Chemscore.Hbond.Weighted>
-0.0000

> <Gold.Chemscore.Metal.Weighted>
-0.0000

> <Gold.Chemscore.Lipo.Weighted>
-13.9215

> <Gold.Chemscore.Internal_Hbond.Weighted>
0.0000

> <Gold.Chemscore.DEClash.Weighted>
0.2687

> <Gold.Chemscore.DEInternal.Weighted>
0.6769

> <Gold.Chemscore.Rot.Weighted>
3.3876

> <Gold.Chemscore.Internal.Correction.Weighted>
   9.000000E+99

> <Gold.Protein.RotatedTorsions>
[ 6907 6896 6895 6894 ] final   94.24 input  -60.11 | X-H torsion
[ 7974 7965 7964 7962 ] final -128.94 input  175.53 | X-H torsion
[ 8008 7997 7996 7995 ] final -154.39 input   59.86 | X-H torsion
[ 10167 10162 10161 10158 ] final   95.65 input  -65.29 | X-H torsion
[ 10718 10713 10712 10709 ] final  159.81 input   66.30 | X-H torsion
[ 10763 10752 10751 10750 ] final  -12.92 input  -60.55 | X-H torsion
[ 11005 11000 10999 10996 ] final  -84.99 input  -57.11 | X-H torsion

> <Gold.Protein.ActiveResidues>
 VAL166  LYS551  ARG553  GLY616  TRP617  ASP618  TYR619  PRO620  LYS621  CYS622 
 ASP623  PHE694  ASN695  SER759  ASP760  ASP761  ALA762  ILE779  LEU786  VAL792 
 PHE793  MET794  SER795  GLU796  ALA797  LYS798  CYS799  TRP800  GLU811  SER814 

> <Gold.Protein.RotatedAtoms>
  152.5450  134.1224  159.8404 H   0  0  0  0  0  0  0  0  0  0  0  0  # atno 6907 bound_to 6896
  151.1278  133.5051  159.2607 H   0  0  0  0  0  0  0  0  0  0  0  0  # atno 6908 bound_to 6896
  151.1708  135.0327  159.8805 H   0  0  0  0  0  0  0  0  0  0  0  0  # atno 6909 bound_to 6896
  144.9620  140.7457  143.4723 H   0  0  0  0  0  0  0  0  0  0  0  0  # atno 7974 bound_to 7965
  155.6857  140.0749  157.2467 H   0  0  0  0  0  0  0  0  0  0  0  0  # atno 8008 bound_to 7997
  154.4097  140.1674  156.2083 H   0  0  0  0  0  0  0  0  0  0  0  0  # atno 8009 bound_to 7997
  155.9496  140.3378  155.6399 H   0  0  0  0  0  0  0  0  0  0  0  0  # atno 8010 bound_to 7997
  139.7968  144.6830  150.9818 H   0  0  0  0  0  0  0  0  0  0  0  0  # atno 10167 bound_to 10162
  157.1591  131.0583  151.2241 H   0  0  0  0  0  0  0  0  0  0  0  0  # atno 10718 bound_to 10713
  153.5056  135.7017  153.5808 H   0  0  0  0  0  0  0  0  0  0  0  0  # atno 10763 bound_to 10752
  153.3921  135.3893  155.1930 H   0  0  0  0  0  0  0  0  0  0  0  0  # atno 10764 bound_to 10752
  154.8707  135.3861  154.4531 H   0  0  0  0  0  0  0  0  0  0  0  0  # atno 10765 bound_to 10752
  141.1645  133.7375  156.8949 H   0  0  0  0  0  0  0  0  0  0  0  0  # atno 11005 bound_to 11000
  145.2685  139.1964  143.4854 LP  0  0  0  0  0  0  0  0  0  0  0  0  # atno 17320 bound_to 7965
  146.3356  140.2627  142.8602 LP  0  0  0  0  0  0  0  0  0  0  0  0  # atno 17321 bound_to 7965
  140.7820  143.4323  151.0676 LP  0  0  0  0  0  0  0  0  0  0  0  0  # atno 17342 bound_to 10162
  139.7997  143.8102  152.3161 LP  0  0  0  0  0  0  0  0  0  0  0  0  # atno 17343 bound_to 10162
  157.4149  130.7405  149.6868 LP  0  0  0  0  0  0  0  0  0  0  0  0  # atno 17370 bound_to 10713
  155.9757  130.4085  150.3832 LP  0  0  0  0  0  0  0  0  0  0  0  0  # atno 17371 bound_to 10713
  140.1623  134.9157  157.2730 LP  0  0  0  0  0  0  0  0  0  0  0  0  # atno 17394 bound_to 11000
  140.2597  134.3586  155.7411 LP  0  0  0  0  0  0  0  0  0  0  0  0  # atno 17395 bound_to 11000

$$$$
