AV-unprocessed.smi:2942|AV-procd|sdf|11266|dock5
  -GOLD-   2272016153D 1   1.00000     0.00000
 Structure written by MMmdl.
 45 48  0  0  0  0  0  0  0  0  1 V2000
  156.3085  139.6704  161.0438 O   0  0  0  0  0  0  0  0  0  0  0  0
  155.3236  139.5516  161.7739 C   0  0  0  0  0  0  0  0  0  0  0  0
  154.2854  140.4017  161.7208 N   0  0  0  0  0  0  0  0  0  0  0  0
  154.1466  141.5127  160.7850 C   0  0  0  0  0  0  0  0  0  0  0  0
  152.7833  141.5345  160.0617 C   0  0  0  0  0  0  0  0  0  0  0  0
  152.3126  142.9281  159.6757 C   0  0  0  0  0  0  0  0  0  0  0  0
  153.0263  143.6889  158.7256 C   0  0  0  0  0  0  0  0  0  0  0  0
  152.5689  144.9865  158.4243 C   0  0  0  0  0  0  0  0  0  0  0  0
  151.4216  145.4718  159.0809 C   0  0  0  0  0  0  0  0  0  0  0  0
  150.7790  144.6337  160.0136 C   0  0  0  0  0  0  0  0  0  0  0  0
  151.2102  143.3891  160.3101 N   0  0  0  0  0  0  0  0  0  0  0  0
  155.2213  138.3781  162.7761 C   0  0  0  0  0  0  0  0  0  0  0  0
  153.9696  137.5266  162.4339 C   0  0  0  0  0  0  0  0  0  0  0  0
  153.8466  136.3379  163.4114 C   0  0  1  0  0  0  0  0  0  0  0  0
  155.0984  135.4434  163.2986 C   0  0  0  0  0  0  0  0  0  0  0  0
  156.3493  136.2722  163.6579 C   0  0  2  0  0  0  0  0  0  0  0  0
  156.2277  136.7991  165.1022 C   0  0  0  0  0  0  0  0  0  0  0  0
  154.9736  137.6898  165.2127 C   0  0  2  0  0  0  0  0  0  0  0  0
  153.7177  136.8664  164.8558 C   0  0  0  0  0  0  0  0  0  0  0  0
  155.0985  138.8845  164.2434 C   0  0  0  0  0  0  0  0  0  0  0  0
  156.4761  137.4617  162.6826 C   0  0  0  0  0  0  0  0  0  0  0  0
  153.5128  140.2393  162.3503 H   0  0  0  0  0  0  0  0  0  0  0  0
  154.2588  142.4306  161.3623 H   0  0  0  0  0  0  0  0  0  0  0  0
  154.9631  141.5039  160.0616 H   0  0  0  0  0  0  0  0  0  0  0  0
  152.8359  140.9176  159.1640 H   0  0  0  0  0  0  0  0  0  0  0  0
  152.0266  141.0709  160.6966 H   0  0  0  0  0  0  0  0  0  0  0  0
  153.9074  143.2916  158.2440 H   0  0  0  0  0  0  0  0  0  0  0  0
  153.0908  145.5997  157.7046 H   0  0  0  0  0  0  0  0  0  0  0  0
  151.0433  146.4622  158.8755 H   0  0  0  0  0  0  0  0  0  0  0  0
  149.8978  144.9727  160.5380 H   0  0  0  0  0  0  0  0  0  0  0  0
  153.0670  138.1368  162.4915 H   0  0  0  0  0  0  0  0  0  0  0  0
  154.0241  137.1589  161.4078 H   0  0  0  0  0  0  0  0  0  0  0  0
  152.9607  135.7542  163.1592 H   0  0  0  0  0  0  0  0  0  0  0  0
  155.0098  134.5840  163.9643 H   0  0  0  0  0  0  0  0  0  0  0  0
  155.1869  135.0433  162.2877 H   0  0  0  0  0  0  0  0  0  0  0  0
  157.2355  135.6422  163.5768 H   0  0  0  0  0  0  0  0  0  0  0  0
  156.1638  135.9671  165.8046 H   0  0  0  0  0  0  0  0  0  0  0  0
  157.1191  137.3657  165.3743 H   0  0  0  0  0  0  0  0  0  0  0  0
  154.8841  138.0616  166.2337 H   0  0  0  0  0  0  0  0  0  0  0  0
  152.8216  137.4802  164.9550 H   0  0  0  0  0  0  0  0  0  0  0  0
  153.6004  136.0355  165.5526 H   0  0  0  0  0  0  0  0  0  0  0  0
  155.9655  139.4906  164.5107 H   0  0  0  0  0  0  0  0  0  0  0  0
  154.2251  139.5262  164.3675 H   0  0  0  0  0  0  0  0  0  0  0  0
  156.6018  137.0777  161.6688 H   0  0  0  0  0  0  0  0  0  0  0  0
  157.3800  138.0294  162.9094 H   0  0  0  0  0  0  0  0  0  0  0  0
  1  2  2  0  0  0  0
  2  3  1  0  0  0  0
  2 12  1  0  0  0  0
  3  4  1  0  0  0  0
  3 22  1  0  0  0  0
  4  5  1  0  0  0  0
  4 23  1  0  0  0  0
  4 24  1  0  0  0  0
  5  6  1  0  0  0  0
  5 25  1  0  0  0  0
  5 26  1  0  0  0  0
  6 11  1  0  0  0  0
  6  7  2  0  0  0  0
  7  8  1  0  0  0  0
  7 27  1  0  0  0  0
  8  9  2  0  0  0  0
  8 28  1  0  0  0  0
  9 10  1  0  0  0  0
  9 29  1  0  0  0  0
 10 11  2  0  0  0  0
 10 30  1  0  0  0  0
 12 20  1  0  0  0  0
 12 21  1  0  0  0  0
 12 13  1  0  0  0  0
 13 14  1  0  0  0  0
 13 31  1  0  0  0  0
 13 32  1  0  0  0  0
 14 19  1  0  0  0  0
 14 15  1  0  0  0  0
 14 33  1  0  0  0  0
 15 16  1  0  0  0  0
 15 34  1  0  0  0  0
 15 35  1  0  0  0  0
 16 17  1  0  0  0  0
 16 21  1  0  0  0  0
 16 36  1  0  0  0  0
 17 18  1  0  0  0  0
 17 37  1  0  0  0  0
 17 38  1  0  0  0  0
 18 19  1  0  0  0  0
 18 20  1  0  0  0  0
 18 39  1  0  0  0  0
 19 40  1  0  0  0  0
 19 41  1  0  0  0  0
 20 42  1  0  0  0  0
 20 43  1  0  0  0  0
 21 44  1  0  0  0  0
 21 45  1  0  0  0  0
M  END
> <s_m_source_file>
AV-unprocessed.smi

> <i_m_source_file_index>
2942

> <i_lp_mmshare_version>
43012

> <i_f3d_flags>
0

> <s_epik_input>
W0NIMl0xW0NASF0oW0NIMl0yKVtDSDJdW0NASF0oW0NIMl0zKVtDSDJdW0NAQEhdMVtDSDJdQzIzQyg9TylbTkhdW0NIMl1bQ0gyXWM0W2NIXVtjSF1bY0hdW2NIXW40

> <s_epik_cmdline>
J2VwaWtfcHl0aG9uJywgJy1waCcsICc3LjAnLCAnLXRuJywgJzgnLCAnLW1hJywgJzIwMCcsICctbWV0YWxfYmluZGluZycsICctaW1hZScsICc8aW5maWxlLm1hZT4nLCAnLW9tYWUnLCAnPG91dGZpbGUubWFlPic=

> <r_epik_Ionization_Penalty>
0.0283659

> <r_epik_Ionization_Penalty_Charging>
0

> <r_epik_Ionization_Penalty_Neutral>
0.0283659

> <r_epik_State_Penalty>
0.0232723

> <r_epik_Charging_Adjusted_Penalty>
0.0232723

> <i_epik_Tot_Q>
0

> <i_epik_Tot_abs_Q>
0

> <r_epik_Metal_State_Penalty>
0.0222054

> <b_epik_Metal_Only>
0

> <s_lp_Force_Field>
OPLS_2005

> <r_lp_Energy>
35.5919

> <b_lp_Chiralities_Consistent>
1

> <s_lp_Variant>
AV-unprocessed.smi:2942-1

> <Gold.Version>
5.8.1

> <Gold.Id.Protein>
6NUR|6NUR_protein|mol2

> <Gold.PLP.Fitness>
45.2645

> <Gold.PLP.PLP>
-45.7867

> <Gold.PLP.part.hbond>
-0.7327

> <Gold.PLP.part.metal>
0.0000

> <Gold.PLP.part.buried>
-3.6442

> <Gold.PLP.part.nonpolar>
-41.0017

> <Gold.PLP.part.repulsive>
0.0959

> <Gold.PLP.ligand.clash>
0.0000

> <Gold.PLP.ligand.torsion>
0.2692

> <Gold.PLP.Chemscore.Hbond>
0.0000

> <Gold.PLP.Chemscore.CHOScore>
0.0000

> <Gold.PLP.Chemscore.Metal>
0.0000

> <Gold.PLP.Chemscore.Internal.Correction>
0.0163

> <Gold.Rescore>
     Score         DG    S(hbond)    S(metal)    S(lipo)     H(rot)  DE(clash)    DE(int)     intcor
     18.21     -18.51       0.00        0.00     140.37       1.32       0.15       0.15       ----

> <Gold.Chemscore.Fitness>
18.2119

> <Gold.Chemscore.DG>
-18.5113

> <Gold.Chemscore.ZeroCoef>
-5.4800

> <Gold.Chemscore.Hbond>
0.0000

> <Gold.Chemscore.Metal>
0.0000

> <Gold.Chemscore.Lipo>
140.3702

> <Gold.Chemscore.Internal_Hbond>
0.0000

> <Gold.Chemscore.DEClash>
0.1451

> <Gold.Chemscore.DEInternal>
0.1543

> <Gold.Chemscore.Rot>
1.3250

> <Gold.Chemscore.Internal.Correction>
   9.000000E+99

> <Gold.Chemscore.Hbond.Weighted>
-0.0000

> <Gold.Chemscore.Metal.Weighted>
-0.0000

> <Gold.Chemscore.Lipo.Weighted>
-16.4233

> <Gold.Chemscore.Internal_Hbond.Weighted>
0.0000

> <Gold.Chemscore.DEClash.Weighted>
0.1451

> <Gold.Chemscore.DEInternal.Weighted>
0.1543

> <Gold.Chemscore.Rot.Weighted>
3.3920

> <Gold.Chemscore.Internal.Correction.Weighted>
   9.000000E+99

> <Gold.Protein.RotatedTorsions>
[ 6907 6896 6895 6894 ] final  158.55 input  -60.11 | X-H torsion
[ 7974 7965 7964 7962 ] final  159.70 input  175.53 | X-H torsion
[ 8008 7997 7996 7995 ] final  152.84 input   59.86 | X-H torsion
[ 10167 10162 10161 10158 ] final   52.83 input  -65.29 | X-H torsion
[ 10718 10713 10712 10709 ] final -103.37 input   66.30 | X-H torsion
[ 10763 10752 10751 10750 ] final  171.86 input  -60.55 | X-H torsion
[ 11005 11000 10999 10996 ] final -115.02 input  -57.11 | X-H torsion

> <Gold.Protein.ActiveResidues>
 VAL166  LYS551  ARG553  GLY616  TRP617  ASP618  TYR619  PRO620  LYS621  CYS622 
 ASP623  PHE694  ASN695  SER759  ASP760  ASP761  ALA762  ILE779  LEU786  VAL792 
 PHE793  MET794  SER795  GLU796  ALA797  LYS798  CYS799  TRP800  GLU811  SER814 

> <Gold.Protein.RotatedAtoms>
  151.9987  133.3817  159.4172 H   0  0  0  0  0  0  0  0  0  0  0  0  # atno 6907 bound_to 6896
  150.6912  134.3857  159.5063 H   0  0  0  0  0  0  0  0  0  0  0  0  # atno 6908 bound_to 6896
  152.1601  134.8918  160.0593 H   0  0  0  0  0  0  0  0  0  0  0  0  # atno 6909 bound_to 6896
  144.7776  139.7654  143.6272 H   0  0  0  0  0  0  0  0  0  0  0  0  # atno 7974 bound_to 7965
  156.2610  140.2010  156.6396 H   0  0  0  0  0  0  0  0  0  0  0  0  # atno 8008 bound_to 7997
  154.6619  140.0560  157.0096 H   0  0  0  0  0  0  0  0  0  0  0  0  # atno 8009 bound_to 7997
  155.1263  140.3229  155.4488 H   0  0  0  0  0  0  0  0  0  0  0  0  # atno 8010 bound_to 7997
  140.2472  144.3519  150.6360 H   0  0  0  0  0  0  0  0  0  0  0  0  # atno 10167 bound_to 10162
  156.0263  130.5464  150.7243 H   0  0  0  0  0  0  0  0  0  0  0  0  # atno 10718 bound_to 10713
  154.4178  135.2757  155.1995 H   0  0  0  0  0  0  0  0  0  0  0  0  # atno 10763 bound_to 10752
  154.3953  135.6057  153.5870 H   0  0  0  0  0  0  0  0  0  0  0  0  # atno 10764 bound_to 10752
  152.9832  135.5913  154.4470 H   0  0  0  0  0  0  0  0  0  0  0  0  # atno 10765 bound_to 10752
  141.0515  133.9680  157.2828 H   0  0  0  0  0  0  0  0  0  0  0  0  # atno 11005 bound_to 11000
  146.1965  139.5235  142.9771 LP  0  0  0  0  0  0  0  0  0  0  0  0  # atno 17320 bound_to 7965
  145.6141  141.0334  143.1950 LP  0  0  0  0  0  0  0  0  0  0  0  0  # atno 17321 bound_to 7965
  140.6069  143.2168  151.6964 LP  0  0  0  0  0  0  0  0  0  0  0  0  # atno 17342 bound_to 10162
  139.5058  144.3704  152.0475 LP  0  0  0  0  0  0  0  0  0  0  0  0  # atno 17343 bound_to 10162
  157.4851  131.0906  151.0492 LP  0  0  0  0  0  0  0  0  0  0  0  0  # atno 17370 bound_to 10713
  157.0914  130.5944  149.5440 LP  0  0  0  0  0  0  0  0  0  0  0  0  # atno 17371 bound_to 10713
  139.9354  135.0197  156.8539 LP  0  0  0  0  0  0  0  0  0  0  0  0  # atno 17394 bound_to 11000
  140.6046  134.0139  155.7551 LP  0  0  0  0  0  0  0  0  0  0  0  0  # atno 17395 bound_to 11000

$$$$
