#       Name:                AV-unprocessed.smi:28
#       Creating user name   scv26
#       Creation time:       Thu Mar 26 15:45:48 2020


#       File generated by GOLD software.
#

@<TRIPOS>MOLECULE
AV-unprocessed.smi:28
    51    54     1
SMALL
NO_CHARGES


@<TRIPOS>ATOM
      1 ****        -0.4145   4.0889  -1.6396 O.2            1 S1                 0.0000
      2 ****        -0.8241   2.9370  -1.7922 C.2            1 S1                 0.0000
      3 ****        -2.2388   2.5995  -1.9083 C.2            1 S1                 0.0000
      4 ****        -3.1605   3.5764  -1.8635 F              1 S1                 0.0000
      5 ****        -2.6413   1.3185  -2.0524 C.2            1 S1                 0.0000
      6 ****        -1.7606   0.2503  -2.1011 N.am           1 S1                 0.0000
      7 ****        -2.2486  -1.1765  -2.2381 C.3            1 S1                 0.0000
      8 ****        -2.3204  -1.8461  -0.8616 C.3            1 S1                 0.0000
      9 ****        -3.7376  -1.5256  -0.4398 C.3            1 S1                 0.0000
     10 ****        -4.4801  -1.5986  -1.7703 C.3            1 S1                 0.0000
     11 ****        -3.5457  -1.1741  -2.7619 O.3            1 S1                 0.0000
     12 ****        -0.3722   0.4833  -1.9942 C.2            1 S1                 0.0000
     13 ****         0.4275  -0.4558  -2.0074 O.2            1 S1                 0.0000
     14 ****         0.0527   1.8257  -1.8540 N.am           1 S1                 0.0000
     15 ****         1.4758   2.0707  -1.6881 C.3            1 S1                 0.0000
     16 ****         1.8541   1.9587  -0.2445 C.2            1 S1                 0.0000
     17 ****         1.7941   2.9109   0.6878 N.2            1 S1                 0.0000
     18 ****         2.2124   2.3155   1.8557 N.2            1 S1                 0.0000
     19 ****         2.5103   1.0497   1.5433 C.2            1 S1                 0.0000
     20 ****         2.9702  -0.0321   2.4105 C.ar           1 S1                 0.0000
     21 ****         2.4141  -1.3193   2.2333 C.ar           1 S1                 0.0000
     22 ****         2.8252  -2.3963   3.0409 C.ar           1 S1                 0.0000
     23 ****         3.8028  -2.1971   4.0322 C.ar           1 S1                 0.0000
     24 ****         4.3713  -0.9221   4.2090 C.ar           1 S1                 0.0000
     25 ****         3.9663   0.1609   3.4025 C.ar           1 S1                 0.0000
     26 ****         4.8182   1.8461   3.6744 Br             1 S1                 0.0000
     27 ****         2.2968   0.7665   0.2304 O.3            1 S1                 0.0000
     28 ****        -3.7031   1.1366  -2.1239 H              1 S1                 0.0000
     29 ****        -1.5649  -1.6608  -2.9372 H              1 S1                 0.0000
     30 ****        -2.1928  -2.9215  -0.9906 H              1 S1                 0.0000
     31 ****        -1.5568  -1.4791  -0.1749 H              1 S1                 0.0000
     32 ****        -4.1302  -2.2165   0.3065 H              1 S1                 0.0000
     33 ****        -3.7900  -0.5158  -0.0306 H              1 S1                 0.0000
     34 ****        -4.7701  -2.6279  -1.9852 H              1 S1                 0.0000
     35 ****        -5.3803  -0.9838  -1.7812 H              1 S1                 0.0000
     36 ****         2.0258   1.3530  -2.2990 H              1 S1                 0.0000
     37 ****         1.7170   3.0584  -2.0832 H              1 S1                 0.0000
     38 ****         1.6599  -1.4866   1.4779 H              1 S1                 0.0000
     39 ****         2.3903  -3.3748   2.8996 H              1 S1                 0.0000
     40 ****         4.1208  -3.0222   4.6524 H              1 S1                 0.0000
     41 ****         5.1290  -0.7753   4.9645 H              1 S1                 0.0000
     42 ****         0.5664   4.2637  -1.5547 LP             1 S1                 0.0000
     43 ****        -1.0630   4.8491  -1.6005 LP             1 S1                 0.0000
     44 ****        -3.5874  -1.7972  -3.5429 LP             1 S1                 0.0000
     45 ****        -3.7793  -0.2488  -3.0608 LP             1 S1                 0.0000
     46 ****         0.0946  -1.3947  -2.0945 LP             1 S1                 0.0000
     47 ****         1.4086  -0.2781  -1.9309 LP             1 S1                 0.0000
     48 ****         1.5051   3.8602   0.5638 LP             1 S1                 0.0000
     49 ****         2.2800   2.7434   2.7571 LP             1 S1                 0.0000
     50 ****         3.1424   0.4856  -0.2233 LP             1 S1                 0.0000
     51 ****         1.6060   0.0519   0.1201 LP             1 S1                 0.0000
@<TRIPOS>BOND
    1    1    2 2     
    2    2   14 am    
    3    2    3 1     
    4    3    4 1     
    5    3    5 2     
    6    5    6 1     
    7    5   28 1     
    8    6    7 1     
    9    6   12 am    
   10    7   11 1     
   11    7    8 1     
   12    7   29 1     
   13    8    9 1     
   14    8   30 1     
   15    8   31 1     
   16    9   10 1     
   17    9   32 1     
   18    9   33 1     
   19   10   11 1     
   20   10   34 1     
   21   10   35 1     
   22   12   13 2     
   23   12   14 am    
   24   14   15 1     
   25   15   16 1     
   26   15   36 1     
   27   15   37 1     
   28   16   27 1     
   29   16   17 2     
   30   17   18 1     
   31   18   19 2     
   32   19   20 1     
   33   19   27 1     
   34   20   25 ar    
   35   20   21 ar    
   36   21   22 ar    
   37   21   38 1     
   38   22   23 ar    
   39   22   39 1     
   40   23   24 ar    
   41   23   40 1     
   42   24   25 ar    
   43   24   41 1     
   44   25   26 1     
   45    1   42 1     
   46    1   43 1     
   47   11   44 1     
   48   11   45 1     
   49   13   46 1     
   50   13   47 1     
   51   17   48 1     
   52   18   49 1     
   53   27   50 1     
   54   27   51 1     
@<TRIPOS>SUBSTRUCTURE
      1 S1             1
@<TRIPOS>SET
LONE_PAIRS      STATIC     ATOMS    <user>   **** ""
10 42 43 44 45 46 47 48 49 50 51
ATOM$BLUE        STATIC     ATOMS    COLORGROUP SYSTEM
10 42 43 44 45 46 47 48 49 50 51
