AV-unprocessed.smi:3250|AV-procd|sdf|12427|dock1
  -GOLD-   2272018313D 1   1.00000     0.00000
 Structure written by MMmdl.
 39 40  0  0  0  0  0  0  0  0  2 V2000
  145.9253  129.8659  151.7209 C   0  0  0  0  0  0  0  0  0  0  0  0
  146.0949  131.3491  152.0778 C   0  0  0  0  0  0  0  0  0  0  0  0
  146.5149  132.1649  150.9078 N   0  3  1  0  0  0  0  0  0  0  0  0
  145.6251  132.0557  149.7237 C   0  0  0  0  0  0  0  0  0  0  0  0
  144.3504  132.9044  149.8937 C   0  0  0  0  0  0  0  0  0  0  0  0
  144.7037  134.2510  150.1866 O   0  0  0  0  0  0  0  0  0  0  0  0
  145.4427  134.3702  151.3973 C   0  0  2  0  0  0  0  0  0  0  0  0
  145.6687  135.8694  151.6585 C   0  0  0  0  0  0  0  0  0  0  0  0
  144.4325  136.6403  151.6144 N   0  0  0  0  0  0  0  0  0  0  0  0
  143.3037  136.3653  152.3651 C   0  0  0  0  0  0  0  0  0  0  0  0
  143.0658  135.0716  152.5905 N   0  0  0  0  0  0  0  0  0  0  0  0
  141.9743  134.7674  153.3262 C   0  0  0  0  0  0  0  0  0  0  0  0
  141.1192  135.7658  153.8339 C   0  0  0  0  0  0  0  0  0  0  0  0
  141.4624  137.0995  153.5344 C   0  0  0  0  0  0  0  0  0  0  0  0
  140.6690  138.1268  154.0008 O   0  0  0  0  0  0  0  0  0  0  0  0
  139.4087  137.7944  154.5728 C   0  0  0  0  0  0  0  0  0  0  0  0
  142.5605  137.3917  152.7934 N   0  0  0  0  0  0  0  0  0  0  0  0
  146.7657  133.5890  151.2375 C   0  0  0  0  0  0  0  0  0  0  0  0
  145.7030  129.2806  152.6133 H   0  0  0  0  0  0  0  0  0  0  0  0
  146.8367  129.4604  151.2806 H   0  0  0  0  0  0  0  0  0  0  0  0
  145.1097  129.7034  151.0170 H   0  0  0  0  0  0  0  0  0  0  0  0
  145.1794  131.7424  152.5199 H   0  0  0  0  0  0  0  0  0  0  0  0
  146.8600  131.4156  152.8523 H   0  0  0  0  0  0  0  0  0  0  0  0
  146.1765  132.4137  148.8533 H   0  0  0  0  0  0  0  0  0  0  0  0
  145.3704  131.0175  149.5143 H   0  0  0  0  0  0  0  0  0  0  0  0
  143.7685  132.8887  148.9721 H   0  0  0  0  0  0  0  0  0  0  0  0
  143.7053  132.5053  150.6773 H   0  0  0  0  0  0  0  0  0  0  0  0
  144.8499  133.9501  152.2112 H   0  0  0  0  0  0  0  0  0  0  0  0
  146.1343  136.0134  152.6337 H   0  0  0  0  0  0  0  0  0  0  0  0
  146.3660  136.2749  150.9243 H   0  0  0  0  0  0  0  0  0  0  0  0
  144.3967  137.4502  151.0123 H   0  0  0  0  0  0  0  0  0  0  0  0
  141.7815  133.7210  153.5107 H   0  0  0  0  0  0  0  0  0  0  0  0
  140.2480  135.5208  154.4234 H   0  0  0  0  0  0  0  0  0  0  0  0
  138.8990  138.7077  154.8797 H   0  0  0  0  0  0  0  0  0  0  0  0
  139.5266  137.1670  155.4576 H   0  0  0  0  0  0  0  0  0  0  0  0
  138.7661  137.2825  153.8550 H   0  0  0  0  0  0  0  0  0  0  0  0
  147.3802  133.6650  152.1356 H   0  0  0  0  0  0  0  0  0  0  0  0
  147.3521  134.0289  150.4295 H   0  0  0  0  0  0  0  0  0  0  0  0
  147.4093  131.7849  150.6321 H   0  0  0  0  0  0  0  0  0  0  0  0
  1  2  1  0  0  0  0
  1 19  1  0  0  0  0
  1 20  1  0  0  0  0
  1 21  1  0  0  0  0
  2  3  1  0  0  0  0
  2 22  1  0  0  0  0
  2 23  1  0  0  0  0
  3 18  1  0  0  0  0
  3  4  1  0  0  0  0
  3 39  1  0  0  0  0
  4  5  1  0  0  0  0
  4 24  1  0  0  0  0
  4 25  1  0  0  0  0
  5  6  1  0  0  0  0
  5 26  1  0  0  0  0
  5 27  1  0  0  0  0
  6  7  1  0  0  0  0
  7  8  1  0  0  0  0
  7 18  1  0  0  0  0
  7 28  1  0  0  0  0
  8  9  1  0  0  0  0
  8 29  1  0  0  0  0
  8 30  1  0  0  0  0
  9 10  1  0  0  0  0
  9 31  1  0  0  0  0
 10 17  1  0  0  0  0
 10 11  2  0  0  0  0
 11 12  1  0  0  0  0
 12 13  2  0  0  0  0
 12 32  1  0  0  0  0
 13 14  1  0  0  0  0
 13 33  1  0  0  0  0
 14 15  1  0  0  0  0
 14 17  2  0  0  0  0
 15 16  1  0  0  0  0
 16 34  1  0  0  0  0
 16 35  1  0  0  0  0
 16 36  1  0  0  0  0
 18 37  1  0  0  0  0
 18 38  1  0  0  0  0
M  CHG  1   3   1
M  END
> <s_m_source_file>
AV-unprocessed.smi

> <i_m_source_file_index>
3250

> <i_lp_mmshare_version>
43012

> <i_f3d_flags>
0

> <s_epik_input>
W0NIM11bQ0gyXU4xW0NIMl1bQ0gyXU9bQ0BIXShbQ0gyXTEpW0NIMl1bTkhdYzJuW2NIXVtjSF1jKG4yKU9bQ0gzXQ==

> <s_epik_cmdline>
J2VwaWtfcHl0aG9uJywgJy1waCcsICc3LjAnLCAnLXRuJywgJzgnLCAnLW1hJywgJzIwMCcsICctbWV0YWxfYmluZGluZycsICctaW1hZScsICc8aW5maWxlLm1hZT4nLCAnLW9tYWUnLCAnPG91dGZpbGUubWFlPic=

> <r_lp_tautomer_probability>
1

> <r_epik_Ionization_Penalty>
0.19684

> <r_epik_Ionization_Penalty_Charging>
0.178504

> <r_epik_Ionization_Penalty_Neutral>
0.0183356

> <r_epik_State_Penalty>
0.162939

> <r_epik_Charging_Adjusted_Penalty>
0.341443

> <i_epik_Tot_Q>
1

> <i_epik_Tot_abs_Q>
1

> <r_epik_Metal_State_Penalty>
0.1608

> <b_epik_Metal_Only>
0

> <s_lp_Force_Field>
OPLS_2005

> <r_lp_Energy>
9.61167

> <b_lp_Chiralities_Consistent>
1

> <s_lp_Variant>
AV-unprocessed.smi:3250-3

> <Gold.Version>
5.8.1

> <Gold.Id.Protein>
6NUR|6NUR_protein|mol2

> <Gold.PLP.Fitness>
41.5652

> <Gold.PLP.PLP>
-33.2955

> <Gold.PLP.part.hbond>
-2.0000

> <Gold.PLP.part.metal>
0.0000

> <Gold.PLP.part.buried>
-7.9987

> <Gold.PLP.part.nonpolar>
-24.9909

> <Gold.PLP.part.repulsive>
1.9024

> <Gold.PLP.ligand.clash>
0.0000

> <Gold.PLP.ligand.torsion>
0.4037

> <Gold.PLP.Chemscore.Hbond>
2.0000

> <Gold.PLP.Chemscore.CHOScore>
1.0000

> <Gold.PLP.Chemscore.Metal>
0.0000

> <Gold.Chemscore.Hbonds>
donor molecule, donor type, donor heavy atom, donor atom, acceptor molecule, acceptor atom, score
      L1  H     3    39       P1 10747  1.00
      L1  H     9    31       P1 10171  1.00
      L1  C    12    32       P1 10957  1.00

> <Gold.PLP.Chemscore.Internal.Correction>
0.0770

> <Gold.Rescore>
     Score         DG    S(hbond)    S(metal)    S(lipo)     H(rot)  DE(clash)    DE(int)     intcor
     14.09     -16.00       2.00        0.00      70.43       1.71       0.38       1.53       ----

> <Gold.Chemscore.Fitness>
14.0949

> <Gold.Chemscore.DG>
-16.0031

> <Gold.Chemscore.ZeroCoef>
-5.4800

> <Gold.Chemscore.Hbond>
1.9964

> <Gold.Chemscore.Metal>
0.0000

> <Gold.Chemscore.Lipo>
70.4255

> <Gold.Chemscore.Internal_Hbond>
0.0000

> <Gold.Chemscore.DEClash>
0.3794

> <Gold.Chemscore.DEInternal>
1.5287

> <Gold.Chemscore.Rot>
1.7127

> <Gold.Chemscore.Internal.Correction>
   9.000000E+99

> <Gold.Chemscore.Hbonds>
donor molecule, donor type, donor heavy atom, donor atom, acceptor molecule, acceptor atom, score
      L1  H     3    39       P1 10747  1.00
      L1  H     9    31       P1 10171  1.00

> <Gold.Chemscore.Hbond.Weighted>
-6.6679

> <Gold.Chemscore.Metal.Weighted>
-0.0000

> <Gold.Chemscore.Lipo.Weighted>
-8.2398

> <Gold.Chemscore.Internal_Hbond.Weighted>
0.0000

> <Gold.Chemscore.DEClash.Weighted>
0.3794

> <Gold.Chemscore.DEInternal.Weighted>
1.5287

> <Gold.Chemscore.Rot.Weighted>
4.3846

> <Gold.Chemscore.Internal.Correction.Weighted>
   9.000000E+99

> <Gold.Protein.RotatedTorsions>
[ 6907 6896 6895 6894 ] final   49.10 input  -60.11 | X-H torsion
[ 7974 7965 7964 7962 ] final  128.40 input  175.53 | X-H torsion
[ 8008 7997 7996 7995 ] final -163.08 input   59.86 | X-H torsion
[ 10167 10162 10161 10158 ] final  159.36 input  -65.29 | X-H torsion
[ 10718 10713 10712 10709 ] final  134.63 input   66.30 | X-H torsion
[ 10763 10752 10751 10750 ] final   29.85 input  -60.55 | X-H torsion
[ 11005 11000 10999 10996 ] final  142.65 input  -57.11 | X-H torsion

> <Gold.Protein.ActiveResidues>
 VAL166  LYS551  ARG553  GLY616  TRP617  ASP618  TYR619  PRO620  LYS621  CYS622 
 ASP623  PHE694  ASN695  SER759  ASP760  ASP761  ALA762  ILE779  LEU786  VAL792 
 PHE793  MET794  SER795  GLU796  ALA797  LYS798  CYS799  TRP800  GLU811  SER814 

> <Gold.Protein.RotatedAtoms>
  152.2869  134.7765  160.0385 H   0  0  0  0  0  0  0  0  0  0  0  0  # atno 6907 bound_to 6896
  151.8325  133.3405  159.3626 H   0  0  0  0  0  0  0  0  0  0  0  0  # atno 6908 bound_to 6896
  150.7213  134.5398  159.5786 H   0  0  0  0  0  0  0  0  0  0  0  0  # atno 6909 bound_to 6896
  145.0400  139.3971  143.5107 H   0  0  0  0  0  0  0  0  0  0  0  0  # atno 7974 bound_to 7965
  155.8161  140.0912  157.1876 H   0  0  0  0  0  0  0  0  0  0  0  0  # atno 8008 bound_to 7997
  154.3979  140.1445  156.3504 H   0  0  0  0  0  0  0  0  0  0  0  0  # atno 8009 bound_to 7997
  155.8315  140.3442  155.5577 H   0  0  0  0  0  0  0  0  0  0  0  0  # atno 8010 bound_to 7997
  139.4832  144.4737  151.8541 H   0  0  0  0  0  0  0  0  0  0  0  0  # atno 10167 bound_to 10162
  157.4653  131.1076  150.9870 H   0  0  0  0  0  0  0  0  0  0  0  0  # atno 10718 bound_to 10713
  153.0406  135.6479  154.0954 H   0  0  0  0  0  0  0  0  0  0  0  0  # atno 10763 bound_to 10752
  154.0661  135.2884  155.3318 H   0  0  0  0  0  0  0  0  0  0  0  0  # atno 10764 bound_to 10752
  154.6625  135.5386  153.8101 H   0  0  0  0  0  0  0  0  0  0  0  0  # atno 10765 bound_to 10752
  140.0493  134.9264  157.0987 H   0  0  0  0  0  0  0  0  0  0  0  0  # atno 11005 bound_to 11000
  146.3508  139.9995  142.8677 LP  0  0  0  0  0  0  0  0  0  0  0  0  # atno 17320 bound_to 7965
  145.1660  140.9697  143.4349 LP  0  0  0  0  0  0  0  0  0  0  0  0  # atno 17321 bound_to 7965
  140.4207  144.2246  150.5887 LP  0  0  0  0  0  0  0  0  0  0  0  0  # atno 17342 bound_to 10162
  140.4876  143.2358  151.8865 LP  0  0  0  0  0  0  0  0  0  0  0  0  # atno 17343 bound_to 10162
  157.0653  130.5842  149.5393 LP  0  0  0  0  0  0  0  0  0  0  0  0  # atno 17370 bound_to 10713
  156.0047  130.5132  150.7789 LP  0  0  0  0  0  0  0  0  0  0  0  0  # atno 17371 bound_to 10713
  140.3943  134.2151  155.7165 LP  0  0  0  0  0  0  0  0  0  0  0  0  # atno 17394 bound_to 11000
  141.1922  133.8177  157.0847 LP  0  0  0  0  0  0  0  0  0  0  0  0  # atno 17395 bound_to 11000

$$$$
