AV-unprocessed.smi:1246|AV-procd|sdf|5241|dock5
  -GOLD-   22720 4353D 1   1.00000     0.00000
 Structure written by MMmdl.
 35 36  0  0  0  0  0  0  0  0  1 V2000
  145.7352  129.6162  152.0755 C   0  0  0  0  0  0  0  0  0  0  0  0
  146.2739  131.0133  152.1697 C   0  0  0  0  0  0  0  0  0  0  0  0
  147.2963  131.5035  153.0333 C   0  0  0  0  0  0  0  0  0  0  0  0
  147.3712  132.8259  152.6901 C   0  0  0  0  0  0  0  0  0  0  0  0
  148.1779  133.7967  153.1951 N   0  0  0  0  0  0  0  0  0  0  0  0
  149.0015  133.7381  154.2560 C   0  0  0  0  0  0  0  0  0  0  0  0
  149.1753  132.7526  154.9733 O   0  0  0  0  0  0  0  0  0  0  0  0
  149.6309  134.9066  154.4427 N   0  0  0  0  0  0  0  0  0  0  0  0
  150.6081  135.1738  155.4917 C   0  0  0  0  0  0  0  0  0  0  0  0
  150.8292  136.6827  155.6868 C   0  0  2  0  0  0  0  0  0  0  0  0
  150.6990  137.4950  154.4018 C   0  0  0  0  0  0  0  0  0  0  0  0
  151.4584  138.7519  154.7631 C   0  0  0  0  0  0  0  0  0  0  0  0
  152.5926  138.2134  155.6349 C   0  0  0  0  0  0  0  0  0  0  0  0
  152.1584  136.9458  156.1238 O   0  0  0  0  0  0  0  0  0  0  0  0
  146.4533  133.0803  151.6956 N   0  0  0  0  0  0  0  0  0  0  0  0
  146.1578  134.3244  151.0121 C   0  0  0  0  0  0  0  0  0  0  0  0
  145.7766  131.9559  151.3769 N   0  0  0  0  0  0  0  0  0  0  0  0
  146.2282  128.9548  152.7882 H   0  0  0  0  0  0  0  0  0  0  0  0
  145.8887  129.2031  151.0784 H   0  0  0  0  0  0  0  0  0  0  0  0
  144.6658  129.5925  152.2863 H   0  0  0  0  0  0  0  0  0  0  0  0
  147.8642  130.9597  153.7730 H   0  0  0  0  0  0  0  0  0  0  0  0
  148.1548  134.6756  152.6993 H   0  0  0  0  0  0  0  0  0  0  0  0
  149.4336  135.6632  153.8044 H   0  0  0  0  0  0  0  0  0  0  0  0
  150.2499  134.7242  156.4180 H   0  0  0  0  0  0  0  0  0  0  0  0
  151.5520  134.6810  155.2529 H   0  0  0  0  0  0  0  0  0  0  0  0
  150.1371  137.0810  156.4311 H   0  0  0  0  0  0  0  0  0  0  0  0
  151.1916  136.9857  153.5722 H   0  0  0  0  0  0  0  0  0  0  0  0
  149.6629  137.6866  154.1219 H   0  0  0  0  0  0  0  0  0  0  0  0
  151.8147  139.3032  153.8927 H   0  0  0  0  0  0  0  0  0  0  0  0
  150.8196  139.4149  155.3482 H   0  0  0  0  0  0  0  0  0  0  0  0
  153.4992  138.0670  155.0470 H   0  0  0  0  0  0  0  0  0  0  0  0
  152.8277  138.8906  156.4564 H   0  0  0  0  0  0  0  0  0  0  0  0
  147.0745  134.7406  150.5945 H   0  0  0  0  0  0  0  0  0  0  0  0
  145.7322  135.0366  151.7190 H   0  0  0  0  0  0  0  0  0  0  0  0
  145.4451  134.1590  150.2031 H   0  0  0  0  0  0  0  0  0  0  0  0
  1  2  1  0  0  0  0
  1 18  1  0  0  0  0
  1 19  1  0  0  0  0
  1 20  1  0  0  0  0
  2 17  2  0  0  0  0
  2  3  1  0  0  0  0
  3  4  2  0  0  0  0
  3 21  1  0  0  0  0
  4  5  1  0  0  0  0
  4 15  1  0  0  0  0
  5  6  1  0  0  0  0
  5 22  1  0  0  0  0
  6  7  2  0  0  0  0
  6  8  1  0  0  0  0
  8  9  1  0  0  0  0
  8 23  1  0  0  0  0
  9 10  1  0  0  0  0
  9 24  1  0  0  0  0
  9 25  1  0  0  0  0
 10 14  1  0  0  0  0
 10 11  1  0  0  0  0
 10 26  1  0  0  0  0
 11 12  1  0  0  0  0
 11 27  1  0  0  0  0
 11 28  1  0  0  0  0
 12 13  1  0  0  0  0
 12 29  1  0  0  0  0
 12 30  1  0  0  0  0
 13 14  1  0  0  0  0
 13 31  1  0  0  0  0
 13 32  1  0  0  0  0
 15 16  1  0  0  0  0
 15 17  1  0  0  0  0
 16 33  1  0  0  0  0
 16 34  1  0  0  0  0
 16 35  1  0  0  0  0
M  END
> <s_m_source_file>
AV-unprocessed.smi

> <i_m_source_file_index>
1246

> <i_lp_mmshare_version>
43012

> <i_f3d_flags>
0

> <s_epik_input>
W0NIM11jMVtjSF1jKG4objEpW0NIM10pW05IXUMoPU8pW05IXVtDSDJdW0NAQEhdMltDSDJdW0NIMl1bQ0gyXU8y

> <s_epik_cmdline>
J2VwaWtfcHl0aG9uJywgJy1waCcsICc3LjAnLCAnLXRuJywgJzgnLCAnLW1hJywgJzIwMCcsICctbWV0YWxfYmluZGluZycsICctaW1hZScsICc8aW5maWxlLm1hZT4nLCAnLW9tYWUnLCAnPG91dGZpbGUubWFlPic=

> <r_lp_tautomer_probability>
1

> <r_epik_Ionization_Penalty>
9.6187e-05

> <r_epik_Ionization_Penalty_Charging>
0

> <r_epik_Ionization_Penalty_Neutral>
9.6187e-05

> <r_epik_State_Penalty>
-0

> <r_epik_Charging_Adjusted_Penalty>
0

> <i_epik_Tot_Q>
0

> <i_epik_Tot_abs_Q>
0

> <r_epik_Metal_State_Penalty>
-0

> <b_epik_Metal_Only>
0

> <s_lp_Force_Field>
OPLS_2005

> <r_lp_Energy>
17.9178

> <b_lp_Chiralities_Consistent>
1

> <s_lp_Variant>
AV-unprocessed.smi:1246-1

> <Gold.Version>
5.8.1

> <Gold.Id.Protein>
6NUR|6NUR_protein|mol2

> <Gold.PLP.Fitness>
39.4800

> <Gold.PLP.PLP>
-31.8245

> <Gold.PLP.part.hbond>
-3.0000

> <Gold.PLP.part.metal>
0.0000

> <Gold.PLP.part.buried>
-3.5483

> <Gold.PLP.part.nonpolar>
-25.6751

> <Gold.PLP.part.repulsive>
0.1864

> <Gold.PLP.ligand.clash>
0.0000

> <Gold.PLP.ligand.torsion>
0.4711

> <Gold.PLP.Chemscore.Hbond>
2.8642

> <Gold.PLP.Chemscore.CHOScore>
0.0000

> <Gold.PLP.Chemscore.Metal>
0.0000

> <Gold.Chemscore.Hbonds>
donor molecule, donor type, donor heavy atom, donor atom, acceptor molecule, acceptor atom, score
      L1  H     5    22       P1  7948  1.00
      L1  H     8    23       P1  7948  0.89
      P1  H 10752 10763       L1    14  0.91

> <Gold.PLP.Chemscore.Internal.Correction>
0.0053

> <Gold.Rescore>
     Score         DG    S(hbond)    S(metal)    S(lipo)     H(rot)  DE(clash)    DE(int)     intcor
     13.32     -15.07       1.62        0.00      62.95       1.25       0.22       1.53       ----

> <Gold.Chemscore.Fitness>
13.3162

> <Gold.Chemscore.DG>
-15.0687

> <Gold.Chemscore.ZeroCoef>
-5.4800

> <Gold.Chemscore.Hbond>
1.6222

> <Gold.Chemscore.Metal>
0.0000

> <Gold.Chemscore.Lipo>
62.9481

> <Gold.Chemscore.Internal_Hbond>
0.0000

> <Gold.Chemscore.DEClash>
0.2224

> <Gold.Chemscore.DEInternal>
1.5302

> <Gold.Chemscore.Rot>
1.2478

> <Gold.Chemscore.Internal.Correction>
   9.000000E+99

> <Gold.Chemscore.Hbonds>
donor molecule, donor type, donor heavy atom, donor atom, acceptor molecule, acceptor atom, score
      L1  H     5    22       P1  7948  0.53
      L1  H     8    23       P1  7948  0.37
      P1  H 10752 10763       L1    14  0.14

> <Gold.Chemscore.Hbond.Weighted>
-5.4182

> <Gold.Chemscore.Metal.Weighted>
-0.0000

> <Gold.Chemscore.Lipo.Weighted>
-7.3649

> <Gold.Chemscore.Internal_Hbond.Weighted>
0.0000

> <Gold.Chemscore.DEClash.Weighted>
0.2224

> <Gold.Chemscore.DEInternal.Weighted>
1.5302

> <Gold.Chemscore.Rot.Weighted>
3.1944

> <Gold.Chemscore.Internal.Correction.Weighted>
   9.000000E+99

> <Gold.Protein.RotatedTorsions>
[ 6907 6896 6895 6894 ] final -102.69 input  -60.11 | X-H torsion
[ 7974 7965 7964 7962 ] final   33.46 input  175.53 | X-H torsion
[ 8008 7997 7996 7995 ] final  129.43 input   59.86 | X-H torsion
[ 10167 10162 10161 10158 ] final   -2.66 input  -65.29 | X-H torsion
[ 10718 10713 10712 10709 ] final   24.30 input   66.30 | X-H torsion
[ 10763 10752 10751 10750 ] final   92.53 input  -60.55 | X-H torsion
[ 11005 11000 10999 10996 ] final -123.17 input  -57.11 | X-H torsion

> <Gold.Protein.ActiveResidues>
 VAL166  LYS551  ARG553  GLY616  TRP617  ASP618  TYR619  PRO620  LYS621  CYS622 
 ASP623  PHE694  ASN695  SER759  ASP760  ASP761  ALA762  ILE779  LEU786  VAL792 
 PHE793  MET794  SER795  GLU796  ALA797  LYS798  CYS799  TRP800  GLU811  SER814 

> <Gold.Protein.RotatedAtoms>
  150.7207  134.0544  159.3809 H   0  0  0  0  0  0  0  0  0  0  0  0  # atno 6907 bound_to 6896
  151.8521  135.0552  160.0469 H   0  0  0  0  0  0  0  0  0  0  0  0  # atno 6908 bound_to 6896
  152.2782  133.5409  159.5518 H   0  0  0  0  0  0  0  0  0  0  0  0  # atno 6909 bound_to 6896
  146.1419  139.6394  142.9157 H   0  0  0  0  0  0  0  0  0  0  0  0  # atno 7974 bound_to 7965
  156.2936  140.2621  156.2597 H   0  0  0  0  0  0  0  0  0  0  0  0  # atno 8008 bound_to 7997
  154.9801  140.0390  157.2292 H   0  0  0  0  0  0  0  0  0  0  0  0  # atno 8009 bound_to 7997
  154.7780  140.2790  155.6091 H   0  0  0  0  0  0  0  0  0  0  0  0  # atno 8010 bound_to 7997
  140.6859  143.6631  150.8249 H   0  0  0  0  0  0  0  0  0  0  0  0  # atno 10167 bound_to 10162
  157.1779  130.6789  149.6102 H   0  0  0  0  0  0  0  0  0  0  0  0  # atno 10718 bound_to 10713
  153.2202  135.4358  155.0480 H   0  0  0  0  0  0  0  0  0  0  0  0  # atno 10763 bound_to 10752
  154.8246  135.3354  154.6938 H   0  0  0  0  0  0  0  0  0  0  0  0  # atno 10764 bound_to 10752
  153.7371  135.7007  153.5031 H   0  0  0  0  0  0  0  0  0  0  0  0  # atno 10765 bound_to 10752
  140.9939  134.0499  157.3621 H   0  0  0  0  0  0  0  0  0  0  0  0  # atno 11005 bound_to 11000
  145.5027  141.0437  143.2531 LP  0  0  0  0  0  0  0  0  0  0  0  0  # atno 17320 bound_to 7965
  144.7802  139.6542  143.7157 LP  0  0  0  0  0  0  0  0  0  0  0  0  # atno 17321 bound_to 7965
  140.0338  143.5416  152.2748 LP  0  0  0  0  0  0  0  0  0  0  0  0  # atno 17342 bound_to 10162
  139.6218  144.7630  151.2723 LP  0  0  0  0  0  0  0  0  0  0  0  0  # atno 17343 bound_to 10162
  155.9728  130.4656  150.6261 LP  0  0  0  0  0  0  0  0  0  0  0  0  # atno 17370 bound_to 10713
  157.3980  131.0806  151.1334 LP  0  0  0  0  0  0  0  0  0  0  0  0  # atno 17371 bound_to 10713
  139.9005  135.0163  156.7247 LP  0  0  0  0  0  0  0  0  0  0  0  0  # atno 17394 bound_to 11000
  140.6996  133.9318  155.8016 LP  0  0  0  0  0  0  0  0  0  0  0  0  # atno 17395 bound_to 11000

$$$$
