AV-unprocessed.smi:21|AV-procd|sdf|140|dock7
  -GOLD-   2262015343D 1   1.00000     0.00000
 Structure written by MMmdl.
 62 65  0  0  0  0  0  0  0  0  2 V2000
  145.1382  132.7897  150.6745 C   0  0  0  0  0  0  0  0  0  0  0  0
  145.2541  134.1868  150.4587 O   0  0  0  0  0  0  0  0  0  0  0  0
  145.1833  134.9511  151.6529 C   0  0  2  0  0  0  0  0  0  0  0  0
  145.3046  136.4363  151.3437 C   0  0  0  0  0  0  0  0  0  0  0  0
  145.7627  137.0288  152.6797 C   0  0  2  0  0  0  0  0  0  0  0  0
  146.4759  138.3900  152.5535 C   0  0  0  0  0  0  0  0  0  0  0  0
  146.8515  138.9513  153.8544 N   0  0  0  0  0  0  0  0  0  0  0  0
  145.7914  139.5284  154.6723 C   0  0  0  0  0  0  0  0  0  0  0  0
  148.1621  139.1581  154.1813 C   0  0  0  0  0  0  0  0  0  0  0  0
  149.1160  138.5029  153.4656 N   0  0  0  0  0  0  0  0  0  0  0  0
  150.4137  138.6633  153.7342 C   0  0  0  0  0  0  0  0  0  0  0  0
  150.9812  139.4231  154.6693 N   0  0  0  0  0  0  0  0  0  0  0  0
  150.0411  140.0857  155.4000 C   0  0  0  0  0  0  0  0  0  0  0  0
  148.6266  140.0166  155.2280 C   0  0  0  0  0  0  0  0  0  0  0  0
  148.0136  140.8485  156.1616 N   0  0  0  0  0  0  0  0  0  0  0  0
  148.9984  141.3677  156.8408 C   0  0  0  0  0  0  0  0  0  0  0  0
  150.2516  140.9565  156.4538 N   0  0  0  0  0  0  0  0  0  0  0  0
  151.5209  141.3669  157.0270 C   0  0  0  0  0  0  0  0  0  0  0  0
  151.3702  142.3460  158.2240 C   0  0  2  0  0  0  0  0  0  0  0  0
  151.0438  143.7912  157.7750 C   0  0  0  0  0  0  0  0  0  0  0  0
  150.0458  144.3850  158.5794 O   0  0  0  0  0  0  0  0  0  0  0  0
  152.5952  142.3472  159.1773 C   0  0  2  0  0  0  0  0  0  0  0  0
  153.1118  140.9952  159.6350 C   0  0  0  0  0  0  0  0  0  0  0  0
  154.0286  141.3992  160.7850 C   0  0  0  0  0  0  0  0  0  0  0  0
  153.4214  142.5443  161.3775 O   0  0  0  0  0  0  0  0  0  0  0  0
  152.4211  143.0779  160.5126 C   0  0  0  0  0  0  0  0  0  0  0  0
  146.6551  135.9994  153.2641 N   0  3  1  0  0  0  0  0  0  0  0  0
  146.6211  135.9351  154.7416 C   0  0  0  0  0  0  0  0  0  0  0  0
  146.3630  134.7051  152.6024 C   0  0  0  0  0  0  0  0  0  0  0  0
  144.2384  134.7774  152.1717 H   0  0  0  0  0  0  0  0  0  0  0  0
  144.8861  137.1279  153.3231 H   0  0  0  0  0  0  0  0  0  0  0  0
  145.1807  132.2688  149.7180 H   0  0  0  0  0  0  0  0  0  0  0  0
  144.1878  132.5418  151.1488 H   0  0  0  0  0  0  0  0  0  0  0  0
  145.9496  132.4108  151.2968 H   0  0  0  0  0  0  0  0  0  0  0  0
  146.0685  136.5907  150.5800 H   0  0  0  0  0  0  0  0  0  0  0  0
  144.3730  136.8716  150.9810 H   0  0  0  0  0  0  0  0  0  0  0  0
  147.3941  138.2593  151.9803 H   0  0  0  0  0  0  0  0  0  0  0  0
  145.8763  139.0808  151.9608 H   0  0  0  0  0  0  0  0  0  0  0  0
  145.8226  140.6176  154.6324 H   0  0  0  0  0  0  0  0  0  0  0  0
  145.8847  139.2075  155.7101 H   0  0  0  0  0  0  0  0  0  0  0  0
  144.8093  139.2126  154.3199 H   0  0  0  0  0  0  0  0  0  0  0  0
  151.0945  138.1017  153.1113 H   0  0  0  0  0  0  0  0  0  0  0  0
  148.8360  142.0626  157.6519 H   0  0  0  0  0  0  0  0  0  0  0  0
  152.0434  140.4586  157.3214 H   0  0  0  0  0  0  0  0  0  0  0  0
  152.1179  141.8206  156.2358 H   0  0  0  0  0  0  0  0  0  0  0  0
  150.5317  142.0028  158.8322 H   0  0  0  0  0  0  0  0  0  0  0  0
  151.9262  144.4266  157.8528 H   0  0  0  0  0  0  0  0  0  0  0  0
  150.7319  143.8129  156.7302 H   0  0  0  0  0  0  0  0  0  0  0  0
  149.6287  145.0728  158.0834 H   0  0  0  0  0  0  0  0  0  0  0  0
  153.4168  142.8511  158.6648 H   0  0  0  0  0  0  0  0  0  0  0  0
  152.3072  140.3683  160.0184 H   0  0  0  0  0  0  0  0  0  0  0  0
  153.6332  140.4450  158.8513 H   0  0  0  0  0  0  0  0  0  0  0  0
  154.1662  140.5981  161.5117 H   0  0  0  0  0  0  0  0  0  0  0  0
  155.0108  141.6837  160.4053 H   0  0  0  0  0  0  0  0  0  0  0  0
  152.5276  144.1577  160.4075 H   0  0  0  0  0  0  0  0  0  0  0  0
  151.4516  142.8841  160.9680 H   0  0  0  0  0  0  0  0  0  0  0  0
  145.6326  135.6448  155.1002 H   0  0  0  0  0  0  0  0  0  0  0  0
  146.8729  136.9030  155.1761 H   0  0  0  0  0  0  0  0  0  0  0  0
  147.3453  135.2060  155.1069 H   0  0  0  0  0  0  0  0  0  0  0  0
  146.1490  133.9024  153.3098 H   0  0  0  0  0  0  0  0  0  0  0  0
  147.2505  134.4163  152.0380 H   0  0  0  0  0  0  0  0  0  0  0  0
  147.5973  136.2452  152.9953 H   0  0  0  0  0  0  0  0  0  0  0  0
  1  2  1  0  0  0  0
  1 32  1  0  0  0  0
  1 33  1  0  0  0  0
  1 34  1  0  0  0  0
  2  3  1  0  0  0  0
  3 30  1  0  0  0  0
  3 29  1  0  0  0  0
  3  4  1  0  0  0  0
  4  5  1  0  0  0  0
  4 35  1  0  0  0  0
  4 36  1  0  0  0  0
  5 31  1  0  0  0  0
  5  6  1  0  0  0  0
  5 27  1  0  0  0  0
  6  7  1  0  0  0  0
  6 37  1  0  0  0  0
  6 38  1  0  0  0  0
  7  8  1  0  0  0  0
  7  9  1  0  0  0  0
  8 39  1  0  0  0  0
  8 40  1  0  0  0  0
  8 41  1  0  0  0  0
  9 14  1  0  0  0  0
  9 10  2  0  0  0  0
 10 11  1  0  0  0  0
 11 12  2  0  0  0  0
 11 42  1  0  0  0  0
 12 13  1  0  0  0  0
 13 17  1  0  0  0  0
 13 14  2  0  0  0  0
 14 15  1  0  0  0  0
 15 16  2  0  0  0  0
 16 17  1  0  0  0  0
 16 43  1  0  0  0  0
 17 18  1  0  0  0  0
 18 19  1  0  0  0  0
 18 44  1  0  0  0  0
 18 45  1  0  0  0  0
 19 20  1  0  0  0  0
 19 22  1  0  0  0  0
 19 46  1  0  0  0  0
 20 21  1  0  0  0  0
 20 47  1  0  0  0  0
 20 48  1  0  0  0  0
 21 49  1  0  0  0  0
 22 26  1  0  0  0  0
 22 23  1  0  0  0  0
 22 50  1  0  0  0  0
 23 24  1  0  0  0  0
 23 51  1  0  0  0  0
 23 52  1  0  0  0  0
 24 25  1  0  0  0  0
 24 53  1  0  0  0  0
 24 54  1  0  0  0  0
 25 26  1  0  0  0  0
 26 55  1  0  0  0  0
 26 56  1  0  0  0  0
 27 28  1  0  0  0  0
 27 29  1  0  0  0  0
 27 62  1  0  0  0  0
 28 57  1  0  0  0  0
 28 58  1  0  0  0  0
 28 59  1  0  0  0  0
 29 60  1  0  0  0  0
 29 61  1  0  0  0  0
M  CHG  1  27   1
M  END
> <s_m_source_file>
AV-unprocessed.smi

> <i_m_source_file_index>
21

> <i_lp_mmshare_version>
43012

> <i_f3d_flags>
0

> <s_epik_input>
W0NIM11PW0NASF0xW0NIMl1bQ0BIXShOKFtDSDNdKVtDSDJdMSlbQ0gyXU4oW0NIM10pYyhuW2NIXW4yKWMoYzIzKW5bY0hdbjNbQ0gyXVtDQEhdKFtDSDJdW09IXSlbQ0BASF00W0NIMl1bQ0gyXU9bQ0gyXTQ=

> <s_epik_cmdline>
J2VwaWtfcHl0aG9uJywgJy1waCcsICc3LjAnLCAnLXRuJywgJzgnLCAnLW1hJywgJzIwMCcsICctbWV0YWxfYmluZGluZycsICctaW1hZScsICc8aW5maWxlLm1hZT4nLCAnLW9tYWUnLCAnPG91dGZpbGUubWFlPic=

> <r_lp_tautomer_probability>
1

> <r_epik_Ionization_Penalty>
0.0157465

> <r_epik_Ionization_Penalty_Charging>
0.015354

> <r_epik_Ionization_Penalty_Neutral>
0.000392529

> <r_epik_State_Penalty>
0.0120612

> <r_epik_Charging_Adjusted_Penalty>
0.0274152

> <i_epik_Tot_Q>
1

> <i_epik_Tot_abs_Q>
1

> <r_epik_Metal_State_Penalty>
0.0121253

> <b_epik_Metal_Only>
0

> <s_lp_Force_Field>
OPLS_2005

> <r_lp_Energy>
59.0143

> <b_lp_Chiralities_Consistent>
1

> <s_lp_Variant>
AV-unprocessed.smi:21-20

> <Gold.Version>
5.8.1

> <Gold.Id.Protein>
6NUR|6NUR_protein|mol2

> <Gold.PLP.Fitness>
52.6150

> <Gold.PLP.PLP>
-40.7058

> <Gold.PLP.part.hbond>
-3.7871

> <Gold.PLP.part.metal>
0.0000

> <Gold.PLP.part.buried>
-3.5671

> <Gold.PLP.part.nonpolar>
-37.2588

> <Gold.PLP.part.repulsive>
4.6316

> <Gold.PLP.ligand.clash>
0.0000

> <Gold.PLP.ligand.torsion>
1.0015

> <Gold.PLP.Chemscore.Hbond>
3.7258

> <Gold.PLP.Chemscore.CHOScore>
0.6954

> <Gold.PLP.Chemscore.Metal>
0.0000

> <Gold.Chemscore.Hbonds>
donor molecule, donor type, donor heavy atom, donor atom, acceptor molecule, acceptor atom, score
      L1  H    21    49       P1  8029  0.82
      L1  H    27    62       P1  7948  2.00
      P1  H  7989  7998       L1    12  0.90
      L1  C    11    42       P1  7949  0.68

> <Gold.PLP.Chemscore.Internal.Correction>
0.6488

> <Gold.Rescore>
     Score         DG    S(hbond)    S(metal)    S(lipo)     H(rot)  DE(clash)    DE(int)     intcor
     13.45     -15.76       1.91        0.00     100.52       3.08       0.24       2.08       ----

> <Gold.Chemscore.Fitness>
13.4479

> <Gold.Chemscore.DG>
-15.7625

> <Gold.Chemscore.ZeroCoef>
-5.4800

> <Gold.Chemscore.Hbond>
1.9148

> <Gold.Chemscore.Metal>
0.0000

> <Gold.Chemscore.Lipo>
100.5227

> <Gold.Chemscore.Internal_Hbond>
0.0000

> <Gold.Chemscore.DEClash>
0.2359

> <Gold.Chemscore.DEInternal>
2.0787

> <Gold.Chemscore.Rot>
3.0758

> <Gold.Chemscore.Internal.Correction>
   9.000000E+99

> <Gold.Chemscore.Hbonds>
donor molecule, donor type, donor heavy atom, donor atom, acceptor molecule, acceptor atom, score
      L1  H    21    49       P1  8029  0.17
      L1  H    27    62       P1  7948  0.96
      P1  H  7989  7998       L1    12  0.06

> <Gold.Chemscore.Hbond.Weighted>
-6.3955

> <Gold.Chemscore.Metal.Weighted>
-0.0000

> <Gold.Chemscore.Lipo.Weighted>
-11.7612

> <Gold.Chemscore.Internal_Hbond.Weighted>
0.0000

> <Gold.Chemscore.DEClash.Weighted>
0.2359

> <Gold.Chemscore.DEInternal.Weighted>
2.0787

> <Gold.Chemscore.Rot.Weighted>
7.8741

> <Gold.Chemscore.Internal.Correction.Weighted>
   9.000000E+99

> <Gold.Protein.RotatedTorsions>
[ 6907 6896 6895 6894 ] final  -76.43 input  -60.11 | X-H torsion
[ 7974 7965 7964 7962 ] final  124.31 input  175.53 | X-H torsion
[ 8008 7997 7996 7995 ] final  -64.60 input   59.86 | X-H torsion
[ 10167 10162 10161 10158 ] final   64.64 input  -65.29 | X-H torsion
[ 10718 10713 10712 10709 ] final   49.76 input   66.30 | X-H torsion
[ 10763 10752 10751 10750 ] final  -27.69 input  -60.55 | X-H torsion
[ 11005 11000 10999 10996 ] final   -2.28 input  -57.11 | X-H torsion

> <Gold.Protein.ActiveResidues>
 VAL166  LYS551  ARG553  GLY616  TRP617  ASP618  TYR619  PRO620  LYS621  CYS622 
 ASP623  PHE694  ASN695  SER759  ASP760  ASP761  ALA762  ILE779  LEU786  VAL792 
 PHE793  MET794  SER795  GLU796  ALA797  LYS798  CYS799  TRP800  GLU811  SER814 

> <Gold.Protein.RotatedAtoms>
  150.7028  134.4573  159.5363 H   0  0  0  0  0  0  0  0  0  0  0  0  # atno 6907 bound_to 6896
  152.2254  134.8370  160.0489 H   0  0  0  0  0  0  0  0  0  0  0  0  # atno 6908 bound_to 6896
  151.9205  133.3549  159.3932 H   0  0  0  0  0  0  0  0  0  0  0  0  # atno 6909 bound_to 6896
  145.0858  139.3623  143.4886 H   0  0  0  0  0  0  0  0  0  0  0  0  # atno 7974 bound_to 7965
  154.4621  140.0950  156.6922 H   0  0  0  0  0  0  0  0  0  0  0  0  # atno 8008 bound_to 7997
  155.4963  140.3472  155.4345 H   0  0  0  0  0  0  0  0  0  0  0  0  # atno 8009 bound_to 7997
  156.0890  140.1392  156.9605 H   0  0  0  0  0  0  0  0  0  0  0  0  # atno 8010 bound_to 7997
  140.1200  144.4740  150.6926 H   0  0  0  0  0  0  0  0  0  0  0  0  # atno 10167 bound_to 10162
  157.4818  130.8320  149.8102 H   0  0  0  0  0  0  0  0  0  0  0  0  # atno 10718 bound_to 10713
  153.7363  135.6935  153.4977 H   0  0  0  0  0  0  0  0  0  0  0  0  # atno 10763 bound_to 10752
  153.2101  135.4406  155.0368 H   0  0  0  0  0  0  0  0  0  0  0  0  # atno 10764 bound_to 10752
  154.8236  135.3434  154.6890 H   0  0  0  0  0  0  0  0  0  0  0  0  # atno 10765 bound_to 10752
  140.6566  133.9357  155.8411 H   0  0  0  0  0  0  0  0  0  0  0  0  # atno 11005 bound_to 11000
  146.3531  140.0670  142.8625 LP  0  0  0  0  0  0  0  0  0  0  0  0  # atno 17320 bound_to 7965
  145.1124  140.9413  143.4649 LP  0  0  0  0  0  0  0  0  0  0  0  0  # atno 17321 bound_to 7965
  140.6878  143.2359  151.5214 LP  0  0  0  0  0  0  0  0  0  0  0  0  # atno 17342 bound_to 10162
  139.5574  144.2242  152.1635 LP  0  0  0  0  0  0  0  0  0  0  0  0  # atno 17343 bound_to 10162
  156.0126  130.3827  150.2215 LP  0  0  0  0  0  0  0  0  0  0  0  0  # atno 17370 bound_to 10713
  157.0401  131.0033  151.3286 LP  0  0  0  0  0  0  0  0  0  0  0  0  # atno 17371 bound_to 10713
  141.0497  134.0503  157.3799 LP  0  0  0  0  0  0  0  0  0  0  0  0  # atno 17394 bound_to 11000
  139.9027  135.0170  156.7345 LP  0  0  0  0  0  0  0  0  0  0  0  0  # atno 17395 bound_to 11000

$$$$
