#       Name:                AV-unprocessed.smi:1973
#       Creating user name   scv26
#       Creation time:       Fri Mar 27 10:15:48 2020


#       File generated by GOLD software.
#

@<TRIPOS>MOLECULE
AV-unprocessed.smi:1973
    55    57     1
SMALL
NO_CHARGES


@<TRIPOS>ATOM
      1 ****        -4.1669   4.5227  -3.6275 C.3            1 S1                 0.0000
      2 ****        -3.7168   3.1830  -3.5256 O.3            1 S1                 0.0000
      3 ****        -2.3030   3.0863  -3.4952 C.3            1 S1                 0.0000
      4 ****        -1.9062   1.6042  -3.4174 C.3            1 S1                 0.0000
      5 ****        -0.4504   1.4384  -3.3594 N.am           1 S1                 0.0000
      6 ****         0.0516   1.2883  -2.0769 N.2            1 S1                 0.0000
      7 ****         1.3233   1.1364  -1.8905 C.2            1 S1                 0.0000
      8 ****         1.9039   0.9716  -0.5286 C.2            1 S1                 0.0000
      9 ****         3.1095   0.7878  -0.3529 O.2            1 S1                 0.0000
     10 ****         1.0237   1.0364   0.4866 N.am           1 S1                 0.0000
     11 ****         1.3619   0.9157   1.9010 C.3            1 S1                 0.0000
     12 ****         1.5853  -0.5493   2.3214 C.3            1 S1                 0.0000
     13 ****         1.9201  -0.7281   3.7993 C.3            1 S1                 0.0000
     14 ****         1.6068  -2.2032   4.0319 C.3            1 S1                 0.0000
     15 ****         0.4231  -2.4892   3.1933 N.4            1 S1                 1.0000
     16 ****         0.3570  -3.8830   2.7053 C.3            1 S1                 0.0000
     17 ****        -1.0524  -4.3759   2.4784 C.3            1 S1                 0.0000
     18 ****        -0.2728  -4.8381   3.6906 C.3            1 S1                 0.0000
     19 ****         0.3701  -1.4679   2.1209 C.3            1 S1                 0.0000
     20 ****         2.2436   1.1206  -3.0151 C.2            1 S1                 0.0000
     21 ****         1.7398   1.2757  -4.2590 C.2            1 S1                 0.0000
     22 ****         0.3069   1.4538  -4.4977 C.2            1 S1                 0.0000
     23 ****        -0.1743   1.6076  -5.6198 O.2            1 S1                 0.0000
     24 ****        -5.2565   4.5439  -3.6393 H              1 S1                 0.0000
     25 ****        -3.8118   4.9886  -4.5477 H              1 S1                 0.0000
     26 ****        -3.8277   5.1192  -2.7796 H              1 S1                 0.0000
     27 ****        -1.8800   3.5461  -4.3898 H              1 S1                 0.0000
     28 ****        -1.9123   3.6256  -2.6307 H              1 S1                 0.0000
     29 ****        -2.3678   1.1510  -2.5382 H              1 S1                 0.0000
     30 ****        -2.3171   1.0625  -4.2713 H              1 S1                 0.0000
     31 ****         0.0527   1.1966   0.2589 H              1 S1                 0.0000
     32 ****         2.2491   1.5116   2.1216 H              1 S1                 0.0000
     33 ****         0.5477   1.3519   2.4806 H              1 S1                 0.0000
     34 ****         2.4173  -0.9621   1.7476 H              1 S1                 0.0000
     35 ****         2.9541  -0.4744   4.0341 H              1 S1                 0.0000
     36 ****         1.2693  -0.1068   4.4163 H              1 S1                 0.0000
     37 ****         2.4518  -2.8092   3.7002 H              1 S1                 0.0000
     38 ****         1.4199  -2.4335   5.0811 H              1 S1                 0.0000
     39 ****         1.1678  -4.2098   2.0563 H              1 S1                 0.0000
     40 ****        -1.8741  -3.6811   2.6432 H              1 S1                 0.0000
     41 ****        -1.2096  -5.1004   1.6820 H              1 S1                 0.0000
     42 ****         0.0838  -5.8662   3.6910 H              1 S1                 0.0000
     43 ****        -0.5771  -4.4511   4.6615 H              1 S1                 0.0000
     44 ****        -0.5623  -0.9138   2.2341 H              1 S1                 0.0000
     45 ****         0.3692  -1.9086   1.1225 H              1 S1                 0.0000
     46 ****         3.3064   0.9917  -2.8689 H              1 S1                 0.0000
     47 ****         2.4124   1.2684  -5.1040 H              1 S1                 0.0000
     48 ****        -0.3890  -2.3327   3.7731 H              1 S1                 0.0000
     49 ****        -4.0566   2.6697  -4.3137 LP             1 S1                 0.0000
     50 ****        -4.0837   2.7845  -2.6850 LP             1 S1                 0.0000
     51 ****        -0.5699   1.2973  -1.2935 LP             1 S1                 0.0000
     52 ****         3.7284   0.7456  -1.1372 LP             1 S1                 0.0000
     53 ****         3.4691   0.6807   0.5741 LP             1 S1                 0.0000
     54 ****        -1.1609   1.7286  -5.7284 LP             1 S1                 0.0000
     55 ****         0.4214   1.6115  -6.4230 LP             1 S1                 0.0000
@<TRIPOS>BOND
    1    1    2 1     
    2    1   24 1     
    3    1   25 1     
    4    1   26 1     
    5    2    3 1     
    6    3    4 1     
    7    3   27 1     
    8    3   28 1     
    9    4    5 1     
   10    4   29 1     
   11    4   30 1     
   12    5   22 am    
   13    5    6 1     
   14    6    7 2     
   15    7    8 1     
   16    7   20 1     
   17    8    9 2     
   18    8   10 am    
   19   10   11 1     
   20   10   31 1     
   21   11   12 1     
   22   11   32 1     
   23   11   33 1     
   24   12   19 1     
   25   12   13 1     
   26   12   34 1     
   27   13   14 1     
   28   13   35 1     
   29   13   36 1     
   30   14   15 1     
   31   14   37 1     
   32   14   38 1     
   33   15   16 1     
   34   15   19 1     
   35   15   48 1     
   36   16   18 1     
   37   16   17 1     
   38   16   39 1     
   39   17   18 1     
   40   17   40 1     
   41   17   41 1     
   42   18   42 1     
   43   18   43 1     
   44   19   44 1     
   45   19   45 1     
   46   20   21 2     
   47   20   46 1     
   48   21   22 1     
   49   21   47 1     
   50   22   23 2     
   51    2   49 1     
   52    2   50 1     
   53    6   51 1     
   54    9   52 1     
   55    9   53 1     
   56   23   54 1     
   57   23   55 1     
@<TRIPOS>SUBSTRUCTURE
      1 S1             1
@<TRIPOS>SET
LONE_PAIRS      STATIC     ATOMS    <user>   **** ""
7 49 50 51 52 53 54 55
DONOR_HYDROGENS      STATIC     ATOMS    <user>   **** ""
2 31 48
ATOM$BLUE        STATIC     ATOMS    COLORGROUP SYSTEM
7 49 50 51 52 53 54 55
ATOM$RED        STATIC     ATOMS    COLORGROUP SYSTEM
2 31 48
