AV-unprocessed.smi:3029|AV-procd|sdf|11528|dock9
  -GOLD-   2272016473D 1   1.00000     0.00000
 Structure written by MMmdl.
 42 43  0  0  0  0  0  0  0  0  4 V2000
  154.3402  136.9085  161.3757 O   0  0  0  0  0  0  0  0  0  0  0  0
  154.7446  137.5290  162.3591 C   0  0  0  0  0  0  0  0  0  0  0  0
  154.8544  136.9076  163.6829 C   0  0  0  0  0  0  0  0  0  0  0  0
  155.2794  137.6011  164.7575 C   0  0  0  0  0  0  0  0  0  0  0  0
  155.6424  138.9998  164.6340 C   0  0  0  0  0  0  0  0  0  0  0  0
  156.0826  139.7592  165.7835 N   0  3  0  0  0  0  0  0  0  0  0  0
  156.3228  140.9554  165.6497 O   0  0  0  0  0  0  0  0  0  0  0  0
  156.2003  139.1823  166.8595 O   0  5  0  0  0  0  0  0  0  0  0  0
  155.5489  139.5658  163.4145 C   0  0  0  0  0  0  0  0  0  0  0  0
  155.1156  138.8430  162.2862 N   0  0  0  0  0  0  0  0  0  0  0  0
  155.0527  139.5699  161.0113 C   0  0  0  0  0  0  0  0  0  0  0  0
  153.9811  140.6714  161.0446 C   0  0  0  0  0  0  0  0  0  0  0  0
  153.4872  140.9643  159.6831 N   0  3  0  0  0  0  0  0  0  0  0  0
  152.3225  141.8772  159.6122 C   0  0  1  0  0  0  0  0  0  0  0  0
  152.6757  143.2264  160.2795 C   0  0  0  0  0  0  0  0  0  0  0  0
  151.5253  144.2362  160.1884 C   0  0  0  0  0  0  0  0  0  0  0  0
  151.1128  144.4573  158.7301 C   0  0  0  0  0  0  0  0  0  0  0  0
  150.7284  143.1281  158.0675 C   0  0  0  0  0  0  0  0  0  0  0  0
  151.8649  142.0806  158.1378 C   0  0  2  0  0  0  0  0  0  0  0  0
  151.4171  140.7670  157.4466 C   0  0  0  0  0  0  0  0  0  0  0  0
  151.1724  140.9767  156.1530 F   0  0  0  0  0  0  0  0  0  0  0  0
  152.3741  139.8456  157.5571 F   0  0  0  0  0  0  0  0  0  0  0  0
  150.3179  140.2713  158.0144 F   0  0  0  0  0  0  0  0  0  0  0  0
  154.5881  135.8669  163.7978 H   0  0  0  0  0  0  0  0  0  0  0  0
  155.3448  137.0998  165.7121 H   0  0  0  0  0  0  0  0  0  0  0  0
  155.7906  140.6010  163.2192 H   0  0  0  0  0  0  0  0  0  0  0  0
  156.0246  140.0103  160.7831 H   0  0  0  0  0  0  0  0  0  0  0  0
  154.8558  138.8794  160.1886 H   0  0  0  0  0  0  0  0  0  0  0  0
  153.1418  140.3593  161.6676 H   0  0  0  0  0  0  0  0  0  0  0  0
  154.3972  141.5740  161.4922 H   0  0  0  0  0  0  0  0  0  0  0  0
  154.2390  141.3464  159.1275 H   0  0  0  0  0  0  0  0  0  0  0  0
  151.4953  141.4223  160.1595 H   0  0  0  0  0  0  0  0  0  0  0  0
  152.9284  143.0817  161.3297 H   0  0  0  0  0  0  0  0  0  0  0  0
  153.5632  143.6498  159.8067 H   0  0  0  0  0  0  0  0  0  0  0  0
  150.6714  143.8753  160.7635 H   0  0  0  0  0  0  0  0  0  0  0  0
  151.8244  145.1832  160.6385 H   0  0  0  0  0  0  0  0  0  0  0  0
  150.2746  145.1532  158.6821 H   0  0  0  0  0  0  0  0  0  0  0  0
  151.9324  144.9211  158.1795 H   0  0  0  0  0  0  0  0  0  0  0  0
  149.8330  142.7334  158.5495 H   0  0  0  0  0  0  0  0  0  0  0  0
  150.4558  143.3189  157.0291 H   0  0  0  0  0  0  0  0  0  0  0  0
  152.7106  142.4786  157.5743 H   0  0  0  0  0  0  0  0  0  0  0  0
  153.2065  140.0831  159.2761 H   0  0  0  0  0  0  0  0  0  0  0  0
  1  2  2  0  0  0  0
  2 10  1  0  0  0  0
  2  3  1  0  0  0  0
  3  4  2  0  0  0  0
  3 24  1  0  0  0  0
  4  5  1  0  0  0  0
  4 25  1  0  0  0  0
  5  6  1  0  0  0  0
  5  9  2  0  0  0  0
  6  7  2  0  0  0  0
  6  8  1  0  0  0  0
  9 10  1  0  0  0  0
  9 26  1  0  0  0  0
 10 11  1  0  0  0  0
 11 12  1  0  0  0  0
 11 27  1  0  0  0  0
 11 28  1  0  0  0  0
 12 13  1  0  0  0  0
 12 29  1  0  0  0  0
 12 30  1  0  0  0  0
 13 14  1  0  0  0  0
 13 31  1  0  0  0  0
 13 42  1  0  0  0  0
 14 19  1  0  0  0  0
 14 15  1  0  0  0  0
 14 32  1  0  0  0  0
 15 16  1  0  0  0  0
 15 33  1  0  0  0  0
 15 34  1  0  0  0  0
 16 17  1  0  0  0  0
 16 35  1  0  0  0  0
 16 36  1  0  0  0  0
 17 18  1  0  0  0  0
 17 37  1  0  0  0  0
 17 38  1  0  0  0  0
 18 19  1  0  0  0  0
 18 39  1  0  0  0  0
 18 40  1  0  0  0  0
 19 20  1  0  0  0  0
 19 41  1  0  0  0  0
 20 21  1  0  0  0  0
 20 22  1  0  0  0  0
 20 23  1  0  0  0  0
M  CHG  1   6   1
M  CHG  1   8  -1
M  CHG  1  13   1
M  END
> <s_m_source_file>
AV-unprocessed.smi

> <i_m_source_file_index>
3029

> <i_lp_mmshare_version>
43012

> <i_f3d_flags>
0

> <s_epik_input>
Tz1jMVtjSF1bY0hdYyhbTitdKD1PKVtPLV0pW2NIXW4xW0NIMl1bQ0gyXVtOSF1bQ0BASF0yW0NIMl1bQ0gyXVtDSDJdW0NIMl1bQ0BIXTJDKEYpKEYpRg==

> <s_epik_cmdline>
J2VwaWtfcHl0aG9uJywgJy1waCcsICc3LjAnLCAnLXRuJywgJzgnLCAnLW1hJywgJzIwMCcsICctbWV0YWxfYmluZGluZycsICctaW1hZScsICc8aW5maWxlLm1hZT4nLCAnLW9tYWUnLCAnPG91dGZpbGUubWFlPic=

> <r_lp_tautomer_probability>
1

> <r_epik_Ionization_Penalty>
0.037386

> <r_epik_Ionization_Penalty_Charging>
0.037386

> <r_epik_Ionization_Penalty_Neutral>
0

> <r_epik_State_Penalty>
0.0312892

> <r_epik_Charging_Adjusted_Penalty>
0.0686752

> <i_epik_Tot_Q>
1

> <i_epik_Tot_abs_Q>
3

> <r_epik_Metal_State_Penalty>
0.0312892

> <b_epik_Metal_Only>
0

> <s_lp_Force_Field>
OPLS_2005

> <r_lp_Energy>
31.4453

> <b_lp_Chiralities_Consistent>
1

> <s_lp_Variant>
AV-unprocessed.smi:3029-4

> <Gold.Version>
5.8.1

> <Gold.Id.Protein>
6NUR|6NUR_protein|mol2

> <Gold.PLP.Fitness>
48.4292

> <Gold.PLP.PLP>
-48.8604

> <Gold.PLP.part.hbond>
-0.6257

> <Gold.PLP.part.metal>
0.0000

> <Gold.PLP.part.buried>
-7.4861

> <Gold.PLP.part.nonpolar>
-41.0501

> <Gold.PLP.part.repulsive>
0.1568

> <Gold.PLP.ligand.clash>
0.0000

> <Gold.PLP.ligand.torsion>
0.2455

> <Gold.PLP.Chemscore.Hbond>
0.0000

> <Gold.PLP.Chemscore.CHOScore>
0.0000

> <Gold.PLP.Chemscore.Metal>
0.0000

> <Gold.PLP.Chemscore.Internal.Correction>
0.0598

> <Gold.Rescore>
     Score         DG    S(hbond)    S(metal)    S(lipo)     H(rot)  DE(clash)    DE(int)     intcor
     12.25     -14.16       0.00        0.00     115.84       1.90       0.00       1.91       ----

> <Gold.Chemscore.Fitness>
12.2491

> <Gold.Chemscore.DG>
-14.1600

> <Gold.Chemscore.ZeroCoef>
-5.4800

> <Gold.Chemscore.Hbond>
0.0000

> <Gold.Chemscore.Metal>
0.0000

> <Gold.Chemscore.Lipo>
115.8425

> <Gold.Chemscore.Internal_Hbond>
0.0000

> <Gold.Chemscore.DEClash>
0.0009

> <Gold.Chemscore.DEInternal>
1.9100

> <Gold.Chemscore.Rot>
1.9037

> <Gold.Chemscore.Internal.Correction>
   9.000000E+99

> <Gold.Chemscore.Hbond.Weighted>
-0.0000

> <Gold.Chemscore.Metal.Weighted>
-0.0000

> <Gold.Chemscore.Lipo.Weighted>
-13.5536

> <Gold.Chemscore.Internal_Hbond.Weighted>
0.0000

> <Gold.Chemscore.DEClash.Weighted>
0.0009

> <Gold.Chemscore.DEInternal.Weighted>
1.9100

> <Gold.Chemscore.Rot.Weighted>
4.8736

> <Gold.Chemscore.Internal.Correction.Weighted>
   9.000000E+99

> <Gold.Protein.RotatedTorsions>
[ 6907 6896 6895 6894 ] final  109.97 input  -60.11 | X-H torsion
[ 7974 7965 7964 7962 ] final  -75.29 input  175.53 | X-H torsion
[ 8008 7997 7996 7995 ] final  119.18 input   59.86 | X-H torsion
[ 10167 10162 10161 10158 ] final   22.12 input  -65.29 | X-H torsion
[ 10718 10713 10712 10709 ] final  139.25 input   66.30 | X-H torsion
[ 10763 10752 10751 10750 ] final -150.78 input  -60.55 | X-H torsion
[ 11005 11000 10999 10996 ] final  116.13 input  -57.11 | X-H torsion

> <Gold.Protein.ActiveResidues>
 VAL166  LYS551  ARG553  GLY616  TRP617  ASP618  TYR619  PRO620  LYS621  CYS622 
 ASP623  PHE694  ASN695  SER759  ASP760  ASP761  ALA762  ILE779  LEU786  VAL792 
 PHE793  MET794  SER795  GLU796  ALA797  LYS798  CYS799  TRP800  GLU811  SER814 

> <Gold.Protein.RotatedAtoms>
  152.5042  133.8867  159.7373 H   0  0  0  0  0  0  0  0  0  0  0  0  # atno 6907 bound_to 6896
  150.9316  133.6752  159.2816 H   0  0  0  0  0  0  0  0  0  0  0  0  # atno 6908 bound_to 6896
  151.4094  135.0987  159.9633 H   0  0  0  0  0  0  0  0  0  0  0  0  # atno 6909 bound_to 6896
  145.6279  140.9345  143.1102 H   0  0  0  0  0  0  0  0  0  0  0  0  # atno 7974 bound_to 7965
  156.2583  140.2858  156.0951 H   0  0  0  0  0  0  0  0  0  0  0  0  # atno 8008 bound_to 7997
  155.1421  140.0396  157.2818 H   0  0  0  0  0  0  0  0  0  0  0  0  # atno 8009 bound_to 7997
  154.6522  140.2547  155.7207 H   0  0  0  0  0  0  0  0  0  0  0  0  # atno 8010 bound_to 7997
  140.5373  143.9738  150.6499 H   0  0  0  0  0  0  0  0  0  0  0  0  # atno 10167 bound_to 10162
  157.4165  131.1034  151.0399 H   0  0  0  0  0  0  0  0  0  0  0  0  # atno 10718 bound_to 10713
  154.8098  135.3276  154.7335 H   0  0  0  0  0  0  0  0  0  0  0  0  # atno 10763 bound_to 10752
  153.7986  135.6905  153.4864 H   0  0  0  0  0  0  0  0  0  0  0  0  # atno 10764 bound_to 10752
  153.1869  135.4565  155.0046 H   0  0  0  0  0  0  0  0  0  0  0  0  # atno 10765 bound_to 10752
  139.9031  134.9594  156.7151 H   0  0  0  0  0  0  0  0  0  0  0  0  # atno 11005 bound_to 11000
  144.7205  139.8047  143.7383 LP  0  0  0  0  0  0  0  0  0  0  0  0  # atno 17320 bound_to 7965
  146.1380  139.4429  143.0127 LP  0  0  0  0  0  0  0  0  0  0  0  0  # atno 17321 bound_to 7965
  140.3129  143.3186  152.0861 LP  0  0  0  0  0  0  0  0  0  0  0  0  # atno 17342 bound_to 10162
  139.4975  144.6624  151.6434 LP  0  0  0  0  0  0  0  0  0  0  0  0  # atno 17343 bound_to 10162
  157.1345  130.6116  149.5538 LP  0  0  0  0  0  0  0  0  0  0  0  0  # atno 17370 bound_to 10713
  155.9867  130.4902  150.7090 LP  0  0  0  0  0  0  0  0  0  0  0  0  # atno 17371 bound_to 10713
  140.7045  133.9277  155.8045 LP  0  0  0  0  0  0  0  0  0  0  0  0  # atno 17394 bound_to 11000
  141.0347  134.0707  157.3973 LP  0  0  0  0  0  0  0  0  0  0  0  0  # atno 17395 bound_to 11000

$$$$
