#       Name:                AV-unprocessed.smi:1738
#       Creating user name   scv26
#       Creation time:       Fri Mar 27 08:21:19 2020


#       File generated by GOLD software.
#

@<TRIPOS>MOLECULE
AV-unprocessed.smi:1738
    49    51     1
SMALL
NO_CHARGES


@<TRIPOS>ATOM
      1 ****        -7.6705   1.9474   0.5973 C.3            1 S1                 0.0000
      2 ****        -7.1675   0.2008   0.3168 S.o2           1 S1                 0.0000
      3 ****        -7.5876  -0.5934   1.4818 O.2            1 S1                 0.0000
      4 ****        -7.6190  -0.1882  -1.0284 O.2            1 S1                 0.0000
      5 ****        -5.3797   0.2689   0.3125 C.ar           1 S1                 0.0000
      6 ****        -4.6626   0.1333  -0.8929 C.ar           1 S1                 0.0000
      7 ****        -3.2593   0.2382  -0.8469 C.ar           1 S1                 0.0000
      8 ****        -2.6304   0.4885   0.3987 C.ar           1 S1                 0.0000
      9 ****        -1.2271   0.6185   0.5936 N.am           1 S1                 0.0000
     10 ****        -0.2402   0.6918  -0.3162 C.2            1 S1                 0.0000
     11 ****        -0.3802   0.6218  -1.5361 O.2            1 S1                 0.0000
     12 ****         0.9512   0.8517   0.2783 N.am           1 S1                 0.0000
     13 ****         2.2288   0.9904  -0.4191 C.3            1 S1                 0.0000
     14 ****         3.2487   1.8501   0.3512 C.3            1 S1                 0.0000
     15 ****         4.5897   1.1421   0.1332 C.3            1 S1                 0.0000
     16 ****         4.2051  -0.2731   0.0821 N.4            1 S1                 1.0000
     17 ****         5.2066  -1.2662  -0.3552 C.3            1 S1                 0.0000
     18 ****         4.6211  -2.6773  -0.1305 C.3            1 S1                 0.0000
     19 ****         3.2259  -2.8438  -0.7754 C.3            1 S1                 0.0000
     20 ****         2.2684  -1.6971  -0.3835 C.3            1 S1                 0.0000
     21 ****         2.9512  -0.3514  -0.6866 C.3            1 S1                 0.0000
     22 ****        -3.4553   0.6109   1.5378 C.ar           1 S1                 0.0000
     23 ****        -4.8005   0.5136   1.5065 N.ar           1 S1                 0.0000
     24 ****        -8.7581   2.0144   0.6087 H              1 S1                 0.0000
     25 ****        -7.2760   2.5728  -0.2032 H              1 S1                 0.0000
     26 ****        -7.2764   2.2905   1.5537 H              1 S1                 0.0000
     27 ****        -5.1677  -0.0489  -1.8298 H              1 S1                 0.0000
     28 ****        -2.7077   0.1221  -1.7656 H              1 S1                 0.0000
     29 ****        -0.9405   0.7082   1.5575 H              1 S1                 0.0000
     30 ****         0.9745   0.8962   1.2866 H              1 S1                 0.0000
     31 ****         2.0527   1.4769  -1.3808 H              1 S1                 0.0000
     32 ****         3.2645   2.8873   0.0147 H              1 S1                 0.0000
     33 ****         3.0139   1.8534   1.4167 H              1 S1                 0.0000
     34 ****         5.0323   1.4391  -0.8190 H              1 S1                 0.0000
     35 ****         5.3075   1.3436   0.9287 H              1 S1                 0.0000
     36 ****         5.4586  -1.1097  -1.4050 H              1 S1                 0.0000
     37 ****         6.1243  -1.1437   0.2208 H              1 S1                 0.0000
     38 ****         5.3050  -3.4327  -0.5185 H              1 S1                 0.0000
     39 ****         4.5393  -2.8619   0.9414 H              1 S1                 0.0000
     40 ****         3.3344  -2.8654  -1.8605 H              1 S1                 0.0000
     41 ****         2.7949  -3.8043  -0.4918 H              1 S1                 0.0000
     42 ****         1.3362  -1.7896  -0.9411 H              1 S1                 0.0000
     43 ****         2.0160  -1.7659   0.6753 H              1 S1                 0.0000
     44 ****         3.2159  -0.3459  -1.7464 H              1 S1                 0.0000
     45 ****        -3.0217   0.7999   2.5090 H              1 S1                 0.0000
     46 ****         3.9614  -0.5157   1.0318 H              1 S1                 0.0000
     47 ****        -1.2918   0.4997  -1.9286 LP             1 S1                 0.0000
     48 ****         0.4176   0.6871  -2.1355 LP             1 S1                 0.0000
     49 ****        -5.3478   0.6189   2.3368 LP             1 S1                 0.0000
@<TRIPOS>BOND
    1    1    2 1     
    2    1   24 1     
    3    1   25 1     
    4    1   26 1     
    5    2    3 2     
    6    2    4 2     
    7    2    5 1     
    8    5   23 ar    
    9    5    6 ar    
   10    6    7 ar    
   11    6   27 1     
   12    7    8 ar    
   13    7   28 1     
   14    8    9 1     
   15    8   22 ar    
   16    9   10 am    
   17    9   29 1     
   18   10   11 2     
   19   10   12 am    
   20   12   13 1     
   21   12   30 1     
   22   13   21 1     
   23   13   14 1     
   24   13   31 1     
   25   14   15 1     
   26   14   32 1     
   27   14   33 1     
   28   15   16 1     
   29   15   34 1     
   30   15   35 1     
   31   16   21 1     
   32   16   17 1     
   33   16   46 1     
   34   17   18 1     
   35   17   36 1     
   36   17   37 1     
   37   18   19 1     
   38   18   38 1     
   39   18   39 1     
   40   19   20 1     
   41   19   40 1     
   42   19   41 1     
   43   20   21 1     
   44   20   42 1     
   45   20   43 1     
   46   21   44 1     
   47   22   23 ar    
   48   22   45 1     
   49   11   47 1     
   50   11   48 1     
   51   23   49 1     
@<TRIPOS>SUBSTRUCTURE
      1 S1             1
@<TRIPOS>SET
LONE_PAIRS      STATIC     ATOMS    <user>   **** ""
5 3 4 47 48 49
DONOR_HYDROGENS      STATIC     ATOMS    <user>   **** ""
3 29 30 46
ATOM$BLUE        STATIC     ATOMS    COLORGROUP SYSTEM
5 3 4 47 48 49
ATOM$RED        STATIC     ATOMS    COLORGROUP SYSTEM
3 29 30 46
