AV-unprocessed.smi:711|AV-procd|sdf|3465|dock10
  -GOLD-   22720 0453D 1   1.00000     0.00000
 Structure written by MMmdl.
 29 30  0  0  0  0  0  0  0  0  1 V2000
  147.1296  138.9766  152.8233 O   0  0  0  0  0  0  0  0  0  0  0  0
  148.0376  139.4647  153.4930 C   0  0  0  0  0  0  0  0  0  0  0  0
  149.1960  138.7221  153.7411 N   0  0  0  0  0  0  0  0  0  0  0  0
  150.2973  139.1556  154.4800 C   0  0  0  0  0  0  0  0  0  0  0  0
  151.2609  138.4059  154.6370 O   0  0  0  0  0  0  0  0  0  0  0  0
  150.2300  140.4634  155.0138 N   0  0  0  0  0  0  0  0  0  0  0  0
  151.3475  140.9449  155.7904 C   0  0  0  0  0  0  0  0  0  0  0  0
  151.5437  140.1829  157.1188 C   0  0  1  0  0  0  0  0  0  0  0  0
  152.6079  139.2618  156.9771 O   0  0  0  0  0  0  0  0  0  0  0  0
  151.8006  141.1579  158.2615 C   0  0  0  0  0  0  0  0  0  0  0  0
  151.2336  142.4525  158.2385 C   0  0  0  0  0  0  0  0  0  0  0  0
  151.4564  143.3471  159.3030 C   0  0  0  0  0  0  0  0  0  0  0  0
  152.2440  142.9528  160.4009 C   0  0  0  0  0  0  0  0  0  0  0  0
  152.4570  143.8118  161.4256 F   0  0  0  0  0  0  0  0  0  0  0  0
  152.8070  141.6630  160.4338 C   0  0  0  0  0  0  0  0  0  0  0  0
  152.5848  140.7660  159.3706 C   0  0  0  0  0  0  0  0  0  0  0  0
  153.1244  139.5245  159.4259 F   0  0  0  0  0  0  0  0  0  0  0  0
  149.0958  141.2322  154.8014 C   0  0  0  0  0  0  0  0  0  0  0  0
  148.0295  140.8018  154.0848 C   0  0  0  0  0  0  0  0  0  0  0  0
  146.6527  141.8211  153.8632 Cl  0  0  0  0  0  0  0  0  0  0  0  0
  149.2393  137.7911  153.3529 H   0  0  0  0  0  0  0  0  0  0  0  0
  152.2422  140.9795  155.1650 H   0  0  0  0  0  0  0  0  0  0  0  0
  151.0975  141.9880  155.9939 H   0  0  0  0  0  0  0  0  0  0  0  0
  150.6472  139.6050  157.3470 H   0  0  0  0  0  0  0  0  0  0  0  0
  152.6915  138.7730  157.7815 H   0  0  0  0  0  0  0  0  0  0  0  0
  150.6204  142.7640  157.4055 H   0  0  0  0  0  0  0  0  0  0  0  0
  151.0205  144.3350  159.2782 H   0  0  0  0  0  0  0  0  0  0  0  0
  153.4074  141.3588  161.2782 H   0  0  0  0  0  0  0  0  0  0  0  0
  149.0569  142.2243  155.2291 H   0  0  0  0  0  0  0  0  0  0  0  0
  1  2  2  0  0  0  0
  2 19  1  0  0  0  0
  2  3  1  0  0  0  0
  3 21  1  0  0  0  0
  3  4  1  0  0  0  0
  4  5  2  0  0  0  0
  4  6  1  0  0  0  0
  6  7  1  0  0  0  0
  6 18  1  0  0  0  0
  7  8  1  0  0  0  0
  7 22  1  0  0  0  0
  7 23  1  0  0  0  0
  8  9  1  0  0  0  0
  8 10  1  0  0  0  0
  8 24  1  0  0  0  0
  9 25  1  0  0  0  0
 10 16  1  0  0  0  0
 10 11  2  0  0  0  0
 11 12  1  0  0  0  0
 11 26  1  0  0  0  0
 12 13  2  0  0  0  0
 12 27  1  0  0  0  0
 13 14  1  0  0  0  0
 13 15  1  0  0  0  0
 15 16  2  0  0  0  0
 15 28  1  0  0  0  0
 16 17  1  0  0  0  0
 18 19  2  0  0  0  0
 18 29  1  0  0  0  0
 19 20  1  0  0  0  0
M  END
> <s_m_source_file>
AV-unprocessed.smi

> <i_m_source_file_index>
711

> <i_lp_mmshare_version>
43012

> <i_f3d_flags>
0

> <s_epik_input>
Tz1jMVtuSF1jKD1PKW4oW2NIXWMxQ2wpW0NIMl1bQ0BIXShbT0hdKWMyW2NIXVtjSF1jKEYpW2NIXWMyRg==

> <s_epik_cmdline>
J2VwaWtfcHl0aG9uJywgJy1waCcsICc3LjAnLCAnLXRuJywgJzgnLCAnLW1hJywgJzIwMCcsICctbWV0YWxfYmluZGluZycsICctaW1hZScsICc8aW5maWxlLm1hZT4nLCAnLW9tYWUnLCAnPG91dGZpbGUubWFlPic=

> <r_lp_tautomer_probability>
0.999537

> <r_epik_Ionization_Penalty>
0.0292058

> <r_epik_Ionization_Penalty_Charging>
0.0292057

> <r_epik_Ionization_Penalty_Neutral>
9.07348e-08

> <r_epik_State_Penalty>
0.0240115

> <r_epik_Charging_Adjusted_Penalty>
0.0532172

> <i_epik_Tot_Q>
0

> <i_epik_Tot_abs_Q>
0

> <r_epik_Metal_State_Penalty>
2.21956

> <b_epik_Metal_Only>
0

> <s_lp_Force_Field>
OPLS_2005

> <r_lp_Energy>
13.2316

> <b_lp_Chiralities_Consistent>
1

> <s_lp_Variant>
AV-unprocessed.smi:711-2

> <Gold.Version>
5.8.1

> <Gold.Id.Protein>
6NUR|6NUR_protein|mol2

> <Gold.PLP.Fitness>
47.5862

> <Gold.PLP.PLP>
-42.2410

> <Gold.PLP.part.hbond>
-2.7699

> <Gold.PLP.part.metal>
0.0000

> <Gold.PLP.part.buried>
-1.9785

> <Gold.PLP.part.nonpolar>
-37.1648

> <Gold.PLP.part.repulsive>
0.4746

> <Gold.PLP.ligand.clash>
0.0000

> <Gold.PLP.ligand.torsion>
1.4082

> <Gold.PLP.Chemscore.Hbond>
1.7150

> <Gold.PLP.Chemscore.CHOScore>
1.0000

> <Gold.PLP.Chemscore.Metal>
0.0000

> <Gold.Chemscore.Hbonds>
donor molecule, donor type, donor heavy atom, donor atom, acceptor molecule, acceptor atom, score
      L1  H     3    21       P1  7948  0.70
      P1  H  7997  8010       L1     9  1.00
      L1  C    18    29       P1  8028  1.00

> <Gold.PLP.Chemscore.Internal.Correction>
0.0166

> <Gold.Rescore>
     Score         DG    S(hbond)    S(metal)    S(lipo)     H(rot)  DE(clash)    DE(int)     intcor
     10.52     -13.93       1.31        0.00      86.55       2.37       0.06       3.36       ----

> <Gold.Chemscore.Fitness>
10.5199

> <Gold.Chemscore.DG>
-13.9341

> <Gold.Chemscore.ZeroCoef>
-5.4800

> <Gold.Chemscore.Hbond>
1.3122

> <Gold.Chemscore.Metal>
0.0000

> <Gold.Chemscore.Lipo>
86.5494

> <Gold.Chemscore.Internal_Hbond>
0.0000

> <Gold.Chemscore.DEClash>
0.0575

> <Gold.Chemscore.DEInternal>
3.3567

> <Gold.Chemscore.Rot>
2.3652

> <Gold.Chemscore.Internal.Correction>
   9.000000E+99

> <Gold.Chemscore.Hbonds>
donor molecule, donor type, donor heavy atom, donor atom, acceptor molecule, acceptor atom, score
      L1  H     3    21       P1  7948  0.69
      P1  H  7997  8010       L1     9  0.26

> <Gold.Chemscore.Hbond.Weighted>
-4.3826

> <Gold.Chemscore.Metal.Weighted>
-0.0000

> <Gold.Chemscore.Lipo.Weighted>
-10.1263

> <Gold.Chemscore.Internal_Hbond.Weighted>
0.0000

> <Gold.Chemscore.DEClash.Weighted>
0.0575

> <Gold.Chemscore.DEInternal.Weighted>
3.3567

> <Gold.Chemscore.Rot.Weighted>
6.0548

> <Gold.Chemscore.Internal.Correction.Weighted>
   9.000000E+99

> <Gold.Protein.RotatedTorsions>
[ 6907 6896 6895 6894 ] final  -93.10 input  -60.11 | X-H torsion
[ 7974 7965 7964 7962 ] final  109.38 input  175.53 | X-H torsion
[ 8008 7997 7996 7995 ] final   47.45 input   59.86 | X-H torsion
[ 10167 10162 10161 10158 ] final -101.31 input  -65.29 | X-H torsion
[ 10718 10713 10712 10709 ] final   39.29 input   66.30 | X-H torsion
[ 10763 10752 10751 10750 ] final   29.69 input  -60.55 | X-H torsion
[ 11005 11000 10999 10996 ] final  163.55 input  -57.11 | X-H torsion

> <Gold.Protein.ActiveResidues>
 VAL166  LYS551  ARG553  GLY616  TRP617  ASP618  TYR619  PRO620  LYS621  CYS622 
 ASP623  PHE694  ASN695  SER759  ASP760  ASP761  ALA762  ILE779  LEU786  VAL792 
 PHE793  MET794  SER795  GLU796  ALA797  LYS798  CYS799  TRP800  GLU811  SER814 

> <Gold.Protein.RotatedAtoms>
  150.6917  134.2019  159.4325 H   0  0  0  0  0  0  0  0  0  0  0  0  # atno 6907 bound_to 6896
  151.9985  134.9938  160.0573 H   0  0  0  0  0  0  0  0  0  0  0  0  # atno 6908 bound_to 6896
  152.1600  133.4541  159.4893 H   0  0  0  0  0  0  0  0  0  0  0  0  # atno 6909 bound_to 6896
  145.2685  139.2675  143.3979 H   0  0  0  0  0  0  0  0  0  0  0  0  # atno 7974 bound_to 7965
  155.3693  140.3423  155.4243 H   0  0  0  0  0  0  0  0  0  0  0  0  # atno 8008 bound_to 7997
  156.1671  140.1619  156.8546 H   0  0  0  0  0  0  0  0  0  0  0  0  # atno 8009 bound_to 7997
  154.5196  140.0770  156.8129 H   0  0  0  0  0  0  0  0  0  0  0  0  # atno 8010 bound_to 7997
  140.2427  143.3528  152.0787 H   0  0  0  0  0  0  0  0  0  0  0  0  # atno 10167 bound_to 10162
  157.3688  130.7690  149.7103 H   0  0  0  0  0  0  0  0  0  0  0  0  # atno 10718 bound_to 10713
  153.0415  135.6482  154.0930 H   0  0  0  0  0  0  0  0  0  0  0  0  # atno 10763 bound_to 10752
  154.0635  135.2886  155.3322 H   0  0  0  0  0  0  0  0  0  0  0  0  # atno 10764 bound_to 10752
  154.6642  135.5380  153.8120 H   0  0  0  0  0  0  0  0  0  0  0  0  # atno 10765 bound_to 10752
  140.2370  134.8080  157.3373 H   0  0  0  0  0  0  0  0  0  0  0  0  # atno 11005 bound_to 11000
  146.3253  140.3122  142.8627 LP  0  0  0  0  0  0  0  0  0  0  0  0  # atno 17320 bound_to 7965
  144.9355  140.8022  143.5662 LP  0  0  0  0  0  0  0  0  0  0  0  0  # atno 17321 bound_to 7965
  139.5072  144.6828  151.5966 LP  0  0  0  0  0  0  0  0  0  0  0  0  # atno 17342 bound_to 10162
  140.6101  143.9451  150.6447 LP  0  0  0  0  0  0  0  0  0  0  0  0  # atno 17343 bound_to 10162
  155.9751  130.4093  150.3871 LP  0  0  0  0  0  0  0  0  0  0  0  0  # atno 17370 bound_to 10713
  157.1959  131.0426  151.2676 LP  0  0  0  0  0  0  0  0  0  0  0  0  # atno 17371 bound_to 10713
  140.1692  134.4630  155.7843 LP  0  0  0  0  0  0  0  0  0  0  0  0  # atno 17394 bound_to 11000
  141.2213  133.6934  156.7678 LP  0  0  0  0  0  0  0  0  0  0  0  0  # atno 17395 bound_to 11000

$$$$
