#       Name:                AV-unprocessed.smi:1300
#       Creating user name   scv26
#       Creation time:       Fri Mar 27 04:57:52 2020


#       File generated by GOLD software.
#

@<TRIPOS>MOLECULE
AV-unprocessed.smi:1300
    41    42     1
SMALL
NO_CHARGES


@<TRIPOS>ATOM
      1 ****        -1.6249   1.8787  -2.0333 C.3            1 S1                 0.0000
      2 ****        -1.2020   0.5152  -1.5573 C.2            1 S1                 0.0000
      3 ****         0.0640   0.2578  -1.5855 N.2            1 S1                 0.0000
      4 ****         0.5610  -0.9581  -1.1551 N.am           1 S1                 0.0000
      5 ****         2.0280  -1.0631  -1.1899 C.3            1 S1                 0.0000
      6 ****         2.7238  -0.7664   0.1664 C.3            1 S1                 0.0000
      7 ****         3.0728  -1.9867   0.7908 O.3            1 S1                 0.0000
      8 ****         1.9633   0.1939   1.0800 C.ar           1 S1                 0.0000
      9 ****         1.1368  -0.2922   2.1193 C.ar           1 S1                 0.0000
     10 ****         0.4172   0.6019   2.9347 C.ar           1 S1                 0.0000
     11 ****         0.5182   1.9889   2.7193 C.ar           1 S1                 0.0000
     12 ****         1.3390   2.4810   1.6871 C.ar           1 S1                 0.0000
     13 ****         2.0586   1.5881   0.8692 C.ar           1 S1                 0.0000
     14 ****         2.8329   2.0767  -0.1292 F              1 S1                 0.0000
     15 ****        -0.2036  -1.9956  -0.7113 C.2            1 S1                 0.0000
     16 ****         0.2799  -3.0726  -0.3604 O.2            1 S1                 0.0000
     17 ****        -1.6370  -1.6967  -0.6813 C.2            1 S1                 0.0000
     18 ****        -2.4727  -2.7493  -0.2009 C.1            1 S1                 0.0000
     19 ****        -3.1667  -3.5895   0.1894 N.1            1 S1                 0.0000
     20 ****        -2.1351  -0.4986  -1.0771 C.2            1 S1                 0.0000
     21 ****        -3.6141  -0.1376  -1.0620 C.3            1 S1                 0.0000
     22 ****        -2.3377   1.7990  -2.8542 H              1 S1                 0.0000
     23 ****        -0.7775   2.4664  -2.3896 H              1 S1                 0.0000
     24 ****        -2.0976   2.4391  -1.2265 H              1 S1                 0.0000
     25 ****         2.3513  -2.0201  -1.6043 H              1 S1                 0.0000
     26 ****         2.3899  -0.3262  -1.9098 H              1 S1                 0.0000
     27 ****         3.6854  -0.3021  -0.0559 H              1 S1                 0.0000
     28 ****         3.6294  -1.7969   1.5304 H              1 S1                 0.0000
     29 ****         1.0376  -1.3543   2.2891 H              1 S1                 0.0000
     30 ****        -0.2150   0.2225   3.7239 H              1 S1                 0.0000
     31 ****        -0.0349   2.6747   3.3440 H              1 S1                 0.0000
     32 ****         1.4144   3.5452   1.5200 H              1 S1                 0.0000
     33 ****        -4.2300  -0.9365  -0.6505 H              1 S1                 0.0000
     34 ****        -3.9688   0.0620  -2.0737 H              1 S1                 0.0000
     35 ****        -3.7863   0.7515  -0.4547 H              1 S1                 0.0000
     36 ****         0.6974   0.9528  -1.9258 LP             1 S1                 0.0000
     37 ****         3.5614  -2.5699   0.1418 LP             1 S1                 0.0000
     38 ****         2.2458  -2.4547   1.1024 LP             1 S1                 0.0000
     39 ****         1.2696  -3.2113  -0.3950 LP             1 S1                 0.0000
     40 ****        -0.3172  -3.8084  -0.0410 LP             1 S1                 0.0000
     41 ****        -3.7662  -4.3154   0.5265 LP             1 S1                 0.0000
@<TRIPOS>BOND
    1    1    2 1     
    2    1   22 1     
    3    1   23 1     
    4    1   24 1     
    5    2   20 1     
    6    2    3 2     
    7    3    4 1     
    8    4    5 1     
    9    4   15 am    
   10    5    6 1     
   11    5   25 1     
   12    5   26 1     
   13    6    7 1     
   14    6    8 1     
   15    6   27 1     
   16    7   28 1     
   17    8   13 ar    
   18    8    9 ar    
   19    9   10 ar    
   20    9   29 1     
   21   10   11 ar    
   22   10   30 1     
   23   11   12 ar    
   24   11   31 1     
   25   12   13 ar    
   26   12   32 1     
   27   13   14 1     
   28   15   16 2     
   29   15   17 1     
   30   17   18 1     
   31   17   20 2     
   32   18   19 3     
   33   20   21 1     
   34   21   33 1     
   35   21   34 1     
   36   21   35 1     
   37    3   36 1     
   38    7   37 1     
   39    7   38 1     
   40   16   39 1     
   41   16   40 1     
   42   19   41 1     
@<TRIPOS>SUBSTRUCTURE
      1 S1             1
@<TRIPOS>SET
LONE_PAIRS      STATIC     ATOMS    <user>   **** ""
6 36 37 38 39 40 41
DONOR_HYDROGENS      STATIC     ATOMS    <user>   **** ""
1 28
ATOM$BLUE        STATIC     ATOMS    COLORGROUP SYSTEM
6 36 37 38 39 40 41
ATOM$RED        STATIC     ATOMS    COLORGROUP SYSTEM
1 28
