#       Name:                AV-unprocessed.smi:1685
#       Creating user name   scv26
#       Creation time:       Fri Mar 27 07:51:43 2020


#       File generated by GOLD software.
#

@<TRIPOS>MOLECULE
AV-unprocessed.smi:1685
    47    48     1
SMALL
NO_CHARGES


@<TRIPOS>ATOM
      1 ****        -1.7355  -4.4606  -3.6224 C.3            1 S1                 0.0000
      2 ****        -1.7706  -3.7356  -2.2727 C.3            1 S1                 0.0000
      3 ****        -2.3100  -2.3444  -2.3816 C.2            1 S1                 0.0000
      4 ****        -3.5948  -2.0173  -2.3275 N.2            1 S1                 0.0000
      5 ****        -3.5939  -0.6456  -2.4962 N.2            1 S1                 0.0000
      6 ****        -2.3850  -0.1885  -2.6506 N.2            1 S1                 0.0000
      7 ****        -1.5518  -1.2570  -2.5837 N.pl3          1 S1                 0.0000
      8 ****        -0.1136  -1.0904  -2.7206 C.3            1 S1                 0.0000
      9 ****         0.5752  -1.0362  -1.3556 C.2            1 S1                 0.0000
     10 ****         1.3782  -1.9129  -1.0381 O.2            1 S1                 0.0000
     11 ****         0.2558  -0.0016  -0.5623 N.am           1 S1                 0.0000
     12 ****         0.7771   0.2284   0.7806 C.3            1 S1                 0.0000
     13 ****        -0.2574   1.0260   1.6035 C.3            1 S1                 0.0000
     14 ****         0.3246   1.4650   2.9586 C.3            1 S1                 0.0000
     15 ****         1.5481   2.2391   2.7163 N.am           1 S1                 0.0000
     16 ****         1.6747   3.5778   2.8818 C.2            1 S1                 0.0000
     17 ****         0.4920   4.3790   3.4311 C.3            1 S1                 0.0000
     18 ****         2.7070   4.1880   2.6032 O.2            1 S1                 0.0000
     19 ****         2.5992   1.4106   2.1147 C.3            1 S1                 0.0000
     20 ****         2.1375   0.9604   0.7168 C.3            1 S1                 0.0000
     21 ****        -1.3439  -5.4716  -3.5103 H              1 S1                 0.0000
     22 ****        -1.1000  -3.9340  -4.3349 H              1 S1                 0.0000
     23 ****        -2.7337  -4.5357  -4.0551 H              1 S1                 0.0000
     24 ****        -2.3920  -4.2943  -1.5721 H              1 S1                 0.0000
     25 ****        -0.7714  -3.7069  -1.8379 H              1 S1                 0.0000
     26 ****         0.2834  -1.9163  -3.3118 H              1 S1                 0.0000
     27 ****         0.0950  -0.1733  -3.2736 H              1 S1                 0.0000
     28 ****        -0.4125   0.6708  -0.9108 H              1 S1                 0.0000
     29 ****         0.9251  -0.7313   1.2795 H              1 S1                 0.0000
     30 ****        -0.5716   1.9111   1.0477 H              1 S1                 0.0000
     31 ****        -1.1542   0.4254   1.7601 H              1 S1                 0.0000
     32 ****        -0.4289   2.0056   3.5295 H              1 S1                 0.0000
     33 ****         0.5686   0.5879   3.5596 H              1 S1                 0.0000
     34 ****        -0.3853   4.2611   2.7942 H              1 S1                 0.0000
     35 ****         0.7330   5.4419   3.4706 H              1 S1                 0.0000
     36 ****         0.2432   4.0560   4.4422 H              1 S1                 0.0000
     37 ****         3.5558   1.9294   2.0404 H              1 S1                 0.0000
     38 ****         2.7827   0.5410   2.7473 H              1 S1                 0.0000
     39 ****         2.8926   0.3142   0.2679 H              1 S1                 0.0000
     40 ****         2.0565   1.8356   0.0702 H              1 S1                 0.0000
     41 ****        -4.3802  -2.6220  -2.1955 LP             1 S1                 0.0000
     42 ****        -4.4166  -0.0771  -2.4992 LP             1 S1                 0.0000
     43 ****        -2.1214   0.7658  -2.7913 LP             1 S1                 0.0000
     44 ****         1.5799  -2.6596  -1.6719 LP             1 S1                 0.0000
     45 ****         1.8291  -1.8787  -0.1461 LP             1 S1                 0.0000
     46 ****         3.4966   3.6945   2.2385 LP             1 S1                 0.0000
     47 ****         2.7560   5.1771   2.7417 LP             1 S1                 0.0000
@<TRIPOS>BOND
    1    1    2 1     
    2    1   21 1     
    3    1   22 1     
    4    1   23 1     
    5    2    3 1     
    6    2   24 1     
    7    2   25 1     
    8    3    7 1     
    9    3    4 2     
   10    4    5 1     
   11    5    6 2     
   12    6    7 1     
   13    7    8 1     
   14    8    9 1     
   15    8   26 1     
   16    8   27 1     
   17    9   10 2     
   18    9   11 am    
   19   11   12 1     
   20   11   28 1     
   21   12   20 1     
   22   12   13 1     
   23   12   29 1     
   24   13   14 1     
   25   13   30 1     
   26   13   31 1     
   27   14   15 1     
   28   14   32 1     
   29   14   33 1     
   30   15   16 am    
   31   15   19 1     
   32   16   17 1     
   33   16   18 2     
   34   17   34 1     
   35   17   35 1     
   36   17   36 1     
   37   19   20 1     
   38   19   37 1     
   39   19   38 1     
   40   20   39 1     
   41   20   40 1     
   42    4   41 1     
   43    5   42 1     
   44    6   43 1     
   45   10   44 1     
   46   10   45 1     
   47   18   46 1     
   48   18   47 1     
@<TRIPOS>SUBSTRUCTURE
      1 S1             1
@<TRIPOS>SET
LONE_PAIRS      STATIC     ATOMS    <user>   **** ""
7 41 42 43 44 45 46 47
DONOR_HYDROGENS      STATIC     ATOMS    <user>   **** ""
1 28
ATOM$BLUE        STATIC     ATOMS    COLORGROUP SYSTEM
7 41 42 43 44 45 46 47
ATOM$RED        STATIC     ATOMS    COLORGROUP SYSTEM
1 28
