AV-unprocessed.smi:3168|AV-procd|sdf|12099|dock4
  -GOLD-   2272017533D 1   1.00000     0.00000
 Structure written by MMmdl.
 33 34  0  0  0  0  0  0  0  0  1 V2000
  151.0773  137.7472  154.5199 C   0  0  0  0  0  0  0  0  0  0  0  0
  151.1884  139.2652  154.7724 C   0  0  2  0  0  0  0  0  0  0  0  0
  151.7724  139.6046  156.1549 C   0  0  0  0  0  0  0  0  0  0  0  0
  152.9238  139.2814  156.4490 O   0  0  0  0  0  0  0  0  0  0  0  0
  150.9629  140.2724  156.9931 N   0  0  0  0  0  0  0  0  0  0  0  0
  151.3047  140.6967  158.3469 C   0  0  0  0  0  0  0  0  0  0  0  0
  151.0837  142.2055  158.5454 C   0  0  2  0  0  0  0  0  0  0  0  0
  151.3536  143.0698  157.3119 C   0  0  0  0  0  0  0  0  0  0  0  0
  151.6952  144.4006  157.9405 C   0  0  0  0  0  0  0  0  0  0  0  0
  152.5033  143.9633  159.1576 C   0  0  0  0  0  0  0  0  0  0  0  0
  151.9648  142.7031  159.5498 O   0  0  0  0  0  0  0  0  0  0  0  0
  149.9140  139.9463  154.5706 N   0  0  0  0  0  0  0  0  0  0  0  0
  148.7019  139.3897  154.2153 C   0  0  0  0  0  0  0  0  0  0  0  0
  147.7978  140.4070  154.1075 C   0  0  0  0  0  0  0  0  0  0  0  0
  148.5603  141.5691  154.4090 C   0  0  0  0  0  0  0  0  0  0  0  0
  149.8255  141.2926  154.6786 N   0  0  0  0  0  0  0  0  0  0  0  0
  152.0501  137.2615  154.6042 H   0  0  0  0  0  0  0  0  0  0  0  0
  150.6999  137.5471  153.5168 H   0  0  0  0  0  0  0  0  0  0  0  0
  150.4039  137.2624  155.2278 H   0  0  0  0  0  0  0  0  0  0  0  0
  151.8845  139.6624  154.0317 H   0  0  0  0  0  0  0  0  0  0  0  0
  150.0336  140.4987  156.6703 H   0  0  0  0  0  0  0  0  0  0  0  0
  150.6656  140.1441  159.0360 H   0  0  0  0  0  0  0  0  0  0  0  0
  152.3303  140.4231  158.5999 H   0  0  0  0  0  0  0  0  0  0  0  0
  150.0652  142.3884  158.8923 H   0  0  0  0  0  0  0  0  0  0  0  0
  152.2131  142.6919  156.7559 H   0  0  0  0  0  0  0  0  0  0  0  0
  150.5025  143.1222  156.6324 H   0  0  0  0  0  0  0  0  0  0  0  0
  152.2494  145.0624  157.2746 H   0  0  0  0  0  0  0  0  0  0  0  0
  150.7847  144.9122  158.2552 H   0  0  0  0  0  0  0  0  0  0  0  0
  153.5501  143.8215  158.8864 H   0  0  0  0  0  0  0  0  0  0  0  0
  152.4587  144.6885  159.9703 H   0  0  0  0  0  0  0  0  0  0  0  0
  148.5851  138.3260  154.0695 H   0  0  0  0  0  0  0  0  0  0  0  0
  146.7523  140.3326  153.8487 H   0  0  0  0  0  0  0  0  0  0  0  0
  148.2350  142.5986  154.4358 H   0  0  0  0  0  0  0  0  0  0  0  0
  1  2  1  0  0  0  0
  1 17  1  0  0  0  0
  1 18  1  0  0  0  0
  1 19  1  0  0  0  0
  2  3  1  0  0  0  0
  2 12  1  0  0  0  0
  2 20  1  0  0  0  0
  3  4  2  0  0  0  0
  3  5  1  0  0  0  0
  5  6  1  0  0  0  0
  5 21  1  0  0  0  0
  6  7  1  0  0  0  0
  6 22  1  0  0  0  0
  6 23  1  0  0  0  0
  7 11  1  0  0  0  0
  7  8  1  0  0  0  0
  7 24  1  0  0  0  0
  8  9  1  0  0  0  0
  8 25  1  0  0  0  0
  8 26  1  0  0  0  0
  9 10  1  0  0  0  0
  9 27  1  0  0  0  0
  9 28  1  0  0  0  0
 10 11  1  0  0  0  0
 10 29  1  0  0  0  0
 10 30  1  0  0  0  0
 12 16  1  0  0  0  0
 12 13  1  0  0  0  0
 13 14  2  0  0  0  0
 13 31  1  0  0  0  0
 14 15  1  0  0  0  0
 14 32  1  0  0  0  0
 15 16  2  0  0  0  0
 15 33  1  0  0  0  0
M  END
> <s_m_source_file>
AV-unprocessed.smi

> <i_m_source_file_index>
3168

> <i_lp_mmshare_version>
43012

> <i_f3d_flags>
0

> <s_epik_input>
bjFbY0hdW2NIXVtjSF1uMVtDQEhdKFtDSDNdKUMoPU8pW05IXVtDSDJdW0NAQEhdMltDSDJdW0NIMl1bQ0gyXU8y

> <s_epik_cmdline>
J2VwaWtfcHl0aG9uJywgJy1waCcsICc3LjAnLCAnLXRuJywgJzgnLCAnLW1hJywgJzIwMCcsICctbWV0YWxfYmluZGluZycsICctaW1hZScsICc8aW5maWxlLm1hZT4nLCAnLW9tYWUnLCAnPG91dGZpbGUubWFlPic=

> <r_lp_tautomer_probability>
1

> <r_epik_Ionization_Penalty>
4.14877e-05

> <r_epik_Ionization_Penalty_Charging>
0

> <r_epik_Ionization_Penalty_Neutral>
4.14877e-05

> <r_epik_State_Penalty>
-0

> <r_epik_Charging_Adjusted_Penalty>
0

> <i_epik_Tot_Q>
0

> <i_epik_Tot_abs_Q>
0

> <r_epik_Metal_State_Penalty>
-0

> <b_epik_Metal_Only>
0

> <s_lp_Force_Field>
OPLS_2005

> <r_lp_Energy>
21.6016

> <b_lp_Chiralities_Consistent>
1

> <s_lp_Variant>
AV-unprocessed.smi:3168-1

> <Gold.Version>
5.8.1

> <Gold.Id.Protein>
6NUR|6NUR_protein|mol2

> <Gold.PLP.Fitness>
41.3032

> <Gold.PLP.PLP>
-36.1232

> <Gold.PLP.part.hbond>
-2.1377

> <Gold.PLP.part.metal>
0.0000

> <Gold.PLP.part.buried>
-1.4396

> <Gold.PLP.part.nonpolar>
-31.8337

> <Gold.PLP.part.repulsive>
0.2116

> <Gold.PLP.ligand.clash>
0.0000

> <Gold.PLP.ligand.torsion>
0.4658

> <Gold.PLP.Chemscore.Hbond>
1.0000

> <Gold.PLP.Chemscore.CHOScore>
1.0000

> <Gold.PLP.Chemscore.Metal>
0.0000

> <Gold.Chemscore.Hbonds>
donor molecule, donor type, donor heavy atom, donor atom, acceptor molecule, acceptor atom, score
      P1  H  7997  8010       L1     4  1.00
      L1  C    15    33       P1  8028  1.00

> <Gold.PLP.Chemscore.Internal.Correction>
0.1115

> <Gold.Rescore>
     Score         DG    S(hbond)    S(metal)    S(lipo)     H(rot)  DE(clash)    DE(int)     intcor
     12.86     -14.73       1.00        0.00      85.82       1.61       0.13       1.75       ----

> <Gold.Chemscore.Fitness>
12.8610

> <Gold.Chemscore.DG>
-14.7344

> <Gold.Chemscore.ZeroCoef>
-5.4800

> <Gold.Chemscore.Hbond>
0.9980

> <Gold.Chemscore.Metal>
0.0000

> <Gold.Chemscore.Lipo>
85.8228

> <Gold.Chemscore.Internal_Hbond>
0.0000

> <Gold.Chemscore.DEClash>
0.1267

> <Gold.Chemscore.DEInternal>
1.7468

> <Gold.Chemscore.Rot>
1.6094

> <Gold.Chemscore.Internal.Correction>
   9.000000E+99

> <Gold.Chemscore.Hbonds>
donor molecule, donor type, donor heavy atom, donor atom, acceptor molecule, acceptor atom, score
      P1  H  7997  8010       L1     4  1.00

> <Gold.Chemscore.Hbond.Weighted>
-3.3332

> <Gold.Chemscore.Metal.Weighted>
-0.0000

> <Gold.Chemscore.Lipo.Weighted>
-10.0413

> <Gold.Chemscore.Internal_Hbond.Weighted>
0.0000

> <Gold.Chemscore.DEClash.Weighted>
0.1267

> <Gold.Chemscore.DEInternal.Weighted>
1.7468

> <Gold.Chemscore.Rot.Weighted>
4.1201

> <Gold.Chemscore.Internal.Correction.Weighted>
   9.000000E+99

> <Gold.Protein.RotatedTorsions>
[ 6907 6896 6895 6894 ] final  -57.61 input  -60.11 | X-H torsion
[ 7974 7965 7964 7962 ] final  -30.51 input  175.53 | X-H torsion
[ 8008 7997 7996 7995 ] final   78.72 input   59.86 | X-H torsion
[ 10167 10162 10161 10158 ] final  133.08 input  -65.29 | X-H torsion
[ 10718 10713 10712 10709 ] final  -49.80 input   66.30 | X-H torsion
[ 10763 10752 10751 10750 ] final  -63.53 input  -60.55 | X-H torsion
[ 11005 11000 10999 10996 ] final -153.33 input  -57.11 | X-H torsion

> <Gold.Protein.ActiveResidues>
 VAL166  LYS551  ARG553  GLY616  TRP617  ASP618  TYR619  PRO620  LYS621  CYS622 
 ASP623  PHE694  ASN695  SER759  ASP760  ASP761  ALA762  ILE779  LEU786  VAL792 
 PHE793  MET794  SER795  GLU796  ALA797  LYS798  CYS799  TRP800  GLU811  SER814 

> <Gold.Protein.RotatedAtoms>
  150.8072  134.7204  159.6654 H   0  0  0  0  0  0  0  0  0  0  0  0  # atno 6907 bound_to 6896
  152.4191  134.5984  160.0003 H   0  0  0  0  0  0  0  0  0  0  0  0  # atno 6908 bound_to 6896
  151.6204  133.3302  159.3123 H   0  0  0  0  0  0  0  0  0  0  0  0  # atno 6909 bound_to 6896
  146.1138  140.5549  142.8766 H   0  0  0  0  0  0  0  0  0  0  0  0  # atno 7974 bound_to 7965
  155.8597  140.3454  155.5748 H   0  0  0  0  0  0  0  0  0  0  0  0  # atno 8008 bound_to 7997
  155.7947  140.0876  157.2009 H   0  0  0  0  0  0  0  0  0  0  0  0  # atno 8009 bound_to 7997
  154.4011  140.1476  156.3191 H   0  0  0  0  0  0  0  0  0  0  0  0  # atno 8010 bound_to 7997
  139.5312  144.6632  151.4944 H   0  0  0  0  0  0  0  0  0  0  0  0  # atno 10167 bound_to 10162
  156.1859  130.4151  149.9440 H   0  0  0  0  0  0  0  0  0  0  0  0  # atno 10718 bound_to 10713
  154.3164  135.6205  153.5488 H   0  0  0  0  0  0  0  0  0  0  0  0  # atno 10763 bound_to 10752
  152.9824  135.5713  154.5119 H   0  0  0  0  0  0  0  0  0  0  0  0  # atno 10764 bound_to 10752
  154.4779  135.2862  155.1570 H   0  0  0  0  0  0  0  0  0  0  0  0  # atno 10765 bound_to 10752
  140.7093  134.3850  157.5200 H   0  0  0  0  0  0  0  0  0  0  0  0  # atno 11005 bound_to 11000
  144.7534  140.5249  143.6785 LP  0  0  0  0  0  0  0  0  0  0  0  0  # atno 17320 bound_to 7965
  145.5609  139.1479  143.3341 LP  0  0  0  0  0  0  0  0  0  0  0  0  # atno 17321 bound_to 7965
  140.6491  143.8733  150.6767 LP  0  0  0  0  0  0  0  0  0  0  0  0  # atno 17342 bound_to 10162
  140.2092  143.3897  152.1731 LP  0  0  0  0  0  0  0  0  0  0  0  0  # atno 17343 bound_to 10162
  156.7196  130.9001  151.3617 LP  0  0  0  0  0  0  0  0  0  0  0  0  # atno 17370 bound_to 10713
  157.6898  130.9222  150.0484 LP  0  0  0  0  0  0  0  0  0  0  0  0  # atno 17371 bound_to 10713
  139.8876  134.8879  156.2521 LP  0  0  0  0  0  0  0  0  0  0  0  0  # atno 17394 bound_to 11000
  141.0098  133.7102  156.1093 LP  0  0  0  0  0  0  0  0  0  0  0  0  # atno 17395 bound_to 11000

$$$$
