#       Name:                AV-unprocessed.smi:3308
#       Creating user name   scv26
#       Creation time:       Fri Mar 27 19:05:19 2020


#       File generated by GOLD software.
#

@<TRIPOS>MOLECULE
AV-unprocessed.smi:3308
    44    45     1
SMALL
NO_CHARGES


@<TRIPOS>ATOM
      1 ****        -1.1944  -2.5226   1.7638 C.3            1 S1                 0.0000
      2 ****        -0.6101  -1.7495   0.5688 C.3            1 S1                 0.0000
      3 ****         0.8454  -1.8772   0.6783 N.3            1 S1                 0.0000
      4 ****         1.5890  -0.6141   0.5313 C.3            1 S1                 0.0000
      5 ****         1.3138   0.4023   1.6558 C.2            1 S1                 0.0000
      6 ****         1.3600   0.0104   2.8227 O.2            1 S1                 0.0000
      7 ****         1.0228   1.6841   1.3444 N.am           1 S1                 0.0000
      8 ****         0.7091   2.6971   2.3509 C.3            1 S1                 0.0000
      9 ****         0.1707   3.9005   1.5776 C.3            1 S1                 0.0000
     10 ****         0.8052   3.7693   0.2009 C.3            1 S1                 0.0000
     11 ****         0.9585   2.2614   0.0020 C.3            1 S1                 0.0000
     12 ****        -1.0877  -2.2953  -0.8063 C.3            1 S1                 0.0000
     13 ****        -2.6229  -2.3575  -0.9350 C.3            1 S1                 0.0000
     14 ****        -0.5281  -1.5267  -1.9132 N.pl3          1 S1                 0.0000
     15 ****         0.4463  -1.9123  -2.8108 C.2            1 S1                 0.0000
     16 ****         0.6712  -0.8586  -3.6495 C.2            1 S1                 0.0000
     17 ****        -0.2219   0.1439  -3.1796 C.2            1 S1                 0.0000
     18 ****        -0.9360  -0.2567  -2.1407 N.2            1 S1                 0.0000
     19 ****        -2.2750  -2.3994   1.8315 H              1 S1                 0.0000
     20 ****        -0.7788  -2.1625   2.7059 H              1 S1                 0.0000
     21 ****        -0.9824  -3.5902   1.6930 H              1 S1                 0.0000
     22 ****        -0.9277  -0.7104   0.6647 H              1 S1                 0.0000
     23 ****         1.0746  -2.3285   1.5525 H              1 S1                 0.0000
     24 ****         2.6546  -0.8422   0.5485 H              1 S1                 0.0000
     25 ****         1.3905  -0.2062  -0.4567 H              1 S1                 0.0000
     26 ****        -0.0185   2.3401   3.0815 H              1 S1                 0.0000
     27 ****         1.6234   2.9619   2.8841 H              1 S1                 0.0000
     28 ****        -0.9136   3.8222   1.4879 H              1 S1                 0.0000
     29 ****         0.3986   4.8507   2.0612 H              1 S1                 0.0000
     30 ****         0.2143   4.2411  -0.5847 H              1 S1                 0.0000
     31 ****         1.7894   4.2397   0.2072 H              1 S1                 0.0000
     32 ****         1.8475   2.0366  -0.5888 H              1 S1                 0.0000
     33 ****         0.0879   1.8581  -0.5164 H              1 S1                 0.0000
     34 ****        -0.7191  -3.3170  -0.9128 H              1 S1                 0.0000
     35 ****        -3.0556  -3.0777  -0.2413 H              1 S1                 0.0000
     36 ****        -2.9179  -2.6678  -1.9380 H              1 S1                 0.0000
     37 ****        -3.0818  -1.3878  -0.7389 H              1 S1                 0.0000
     38 ****         0.8974  -2.8930  -2.7750 H              1 S1                 0.0000
     39 ****         1.3700  -0.8102  -4.4714 H              1 S1                 0.0000
     40 ****        -0.3696   1.1448  -3.5573 H              1 S1                 0.0000
     41 ****         1.1392  -2.4361  -0.0972 LP             1 S1                 0.0000
     42 ****         1.5721  -0.9466   3.0208 LP             1 S1                 0.0000
     43 ****         1.1855   0.6492   3.5720 LP             1 S1                 0.0000
     44 ****        -1.6245   0.2636  -1.6355 LP             1 S1                 0.0000
@<TRIPOS>BOND
    1    1    2 1     
    2    1   19 1     
    3    1   20 1     
    4    1   21 1     
    5    2    3 1     
    6    2   12 1     
    7    2   22 1     
    8    3    4 1     
    9    3   23 1     
   10    4    5 1     
   11    4   24 1     
   12    4   25 1     
   13    5    6 2     
   14    5    7 am    
   15    7   11 1     
   16    7    8 1     
   17    8    9 1     
   18    8   26 1     
   19    8   27 1     
   20    9   10 1     
   21    9   28 1     
   22    9   29 1     
   23   10   11 1     
   24   10   30 1     
   25   10   31 1     
   26   11   32 1     
   27   11   33 1     
   28   12   13 1     
   29   12   14 1     
   30   12   34 1     
   31   13   35 1     
   32   13   36 1     
   33   13   37 1     
   34   14   18 1     
   35   14   15 1     
   36   15   16 2     
   37   15   38 1     
   38   16   17 1     
   39   16   39 1     
   40   17   18 2     
   41   17   40 1     
   42    3   41 1     
   43    6   42 1     
   44    6   43 1     
   45   18   44 1     
@<TRIPOS>SUBSTRUCTURE
      1 S1             1
@<TRIPOS>SET
LONE_PAIRS      STATIC     ATOMS    <user>   **** ""
4 41 42 43 44
DONOR_HYDROGENS      STATIC     ATOMS    <user>   **** ""
1 23
ATOM$BLUE        STATIC     ATOMS    COLORGROUP SYSTEM
4 41 42 43 44
ATOM$RED        STATIC     ATOMS    COLORGROUP SYSTEM
1 23
