#       Name:                AV-unprocessed.smi:54
#       Creating user name   scv26
#       Creation time:       Thu Mar 26 16:43:48 2020


#       File generated by GOLD software.
#

@<TRIPOS>MOLECULE
AV-unprocessed.smi:54
    58    60     1
SMALL
NO_CHARGES


@<TRIPOS>ATOM
      1 ****        -2.6307   5.6023   1.4550 C.3            1 S1                 0.0000
      2 ****        -1.8906   4.9856   0.2565 C.3            1 S1                 0.0000
      3 ****        -1.9467   5.9118  -0.9700 C.3            1 S1                 0.0000
      4 ****        -2.4621   3.6008  -0.0803 C.2            1 S1                 0.0000
      5 ****        -3.6339   3.5118  -0.4533 O.2            1 S1                 0.0000
      6 ****        -1.5967   2.5710   0.0563 N.am           1 S1                 0.0000
      7 ****        -1.7962   1.2050  -0.1796 C.2            1 S1                 0.0000
      8 ****        -0.6759   0.5257  -0.2373 N.2            1 S1                 0.0000
      9 ****        -0.8835  -0.8219  -0.4604 C.2            1 S1                 0.0000
     10 ****        -2.0767  -1.4739  -0.6073 C.2            1 S1                 0.0000
     11 ****        -1.8909  -2.8360  -0.8104 N.2            1 S1                 0.0000
     12 ****        -0.5639  -2.9431  -0.7766 C.2            1 S1                 0.0000
     13 ****         0.1068  -1.7903  -0.5723 N.pl3          1 S1                 0.0000
     14 ****         1.5852  -1.5856  -0.4704 C.3            1 S1                 0.0000
     15 ****         2.2123  -2.6238  -1.1677 O.3            1 S1                 0.0000
     16 ****         3.0151  -3.4191  -0.2953 C.3            1 S1                 0.0000
     17 ****         2.9474  -4.8942  -0.7196 C.3            1 S1                 0.0000
     18 ****         3.8333  -5.1296  -1.7924 O.3            1 S1                 0.0000
     19 ****         2.4227  -3.1528   1.0898 C.3            1 S1                 0.0000
     20 ****         3.3318  -3.4040   2.1445 O.3            1 S1                 0.0000
     21 ****         2.0117  -1.6901   0.9975 C.3            1 S1                 0.0000
     22 ****         3.0702  -0.7938   1.2804 O.3            1 S1                 0.0000
     23 ****        -3.3041  -0.6494  -0.5208 C.2            1 S1                 0.0000
     24 ****        -4.3999  -1.1925  -0.6450 O.2            1 S1                 0.0000
     25 ****        -3.1003   0.6839  -0.3010 N.pl3          1 S1                -1.0000
     26 ****         1.7630  -0.6129  -0.9310 H              1 S1                 0.0000
     27 ****         4.0404  -3.0457  -0.3275 H              1 S1                 0.0000
     28 ****         1.5321  -3.7663   1.2355 H              1 S1                 0.0000
     29 ****         1.1818  -1.4531   1.6652 H              1 S1                 0.0000
     30 ****        -2.5867   4.9481   2.3266 H              1 S1                 0.0000
     31 ****        -3.6820   5.7848   1.2279 H              1 S1                 0.0000
     32 ****        -2.1845   6.5554   1.7394 H              1 S1                 0.0000
     33 ****        -0.8424   4.8679   0.5366 H              1 S1                 0.0000
     34 ****        -1.4332   5.4689  -1.8244 H              1 S1                 0.0000
     35 ****        -1.4652   6.8668  -0.7585 H              1 S1                 0.0000
     36 ****        -2.9745   6.1203  -1.2703 H              1 S1                 0.0000
     37 ****        -0.6610   2.8404   0.3217 H              1 S1                 0.0000
     38 ****        -0.0673  -3.8934  -0.9004 H              1 S1                 0.0000
     39 ****         3.2555  -5.5363   0.1061 H              1 S1                 0.0000
     40 ****         1.9336  -5.1853  -0.9946 H              1 S1                 0.0000
     41 ****         3.7788  -6.0418  -2.0331 H              1 S1                 0.0000
     42 ****         2.9351  -3.1199   2.9540 H              1 S1                 0.0000
     43 ****         3.7925  -0.9951   0.7050 H              1 S1                 0.0000
     44 ****        -4.1972   4.3342  -0.5327 LP             1 S1                 0.0000
     45 ****        -4.0210   2.6172  -0.6764 LP             1 S1                 0.0000
     46 ****         0.2291   0.9378  -0.1314 LP             1 S1                 0.0000
     47 ****        -2.5765  -3.5511  -0.9467 LP             1 S1                 0.0000
     48 ****         2.7941  -2.2331  -1.8810 LP             1 S1                 0.0000
     49 ****         1.5139  -3.2035  -1.5875 LP             1 S1                 0.0000
     50 ****         4.7678  -4.9103  -1.5121 LP             1 S1                 0.0000
     51 ****         3.5768  -4.5592  -2.5727 LP             1 S1                 0.0000
     52 ****         4.1795  -2.8973   1.9877 LP             1 S1                 0.0000
     53 ****         3.5323  -4.3826   2.1918 LP             1 S1                 0.0000
     54 ****         3.3571  -0.8995   2.2326 LP             1 S1                 0.0000
     55 ****         2.7671   0.1466   1.1260 LP             1 S1                 0.0000
     56 ****        -4.4543  -2.1786  -0.8022 LP             1 S1                 0.0000
     57 ****        -5.2369  -0.6482  -0.5888 LP             1 S1                 0.0000
     58 ****        -3.8862   1.2976  -0.2253 LP             1 S1                 0.0000
@<TRIPOS>BOND
    1    1    2 1     
    2    1   30 1     
    3    1   31 1     
    4    1   32 1     
    5    2    3 1     
    6    2    4 1     
    7    2   33 1     
    8    3   34 1     
    9    3   35 1     
   10    3   36 1     
   11    4    5 2     
   12    4    6 am    
   13    6   37 1     
   14    6    7 1     
   15    7   25 1     
   16    7    8 2     
   17    8    9 1     
   18    9   13 1     
   19    9   10 2     
   20   10   11 1     
   21   10   23 1     
   22   11   12 2     
   23   12   13 1     
   24   12   38 1     
   25   13   14 1     
   26   14   26 1     
   27   14   21 1     
   28   14   15 1     
   29   15   16 1     
   30   16   27 1     
   31   16   17 1     
   32   16   19 1     
   33   17   18 1     
   34   17   39 1     
   35   17   40 1     
   36   18   41 1     
   37   19   28 1     
   38   19   20 1     
   39   19   21 1     
   40   20   42 1     
   41   21   29 1     
   42   21   22 1     
   43   22   43 1     
   44   23   24 2     
   45   23   25 1     
   46    5   44 1     
   47    5   45 1     
   48    8   46 1     
   49   11   47 1     
   50   15   48 1     
   51   15   49 1     
   52   18   50 1     
   53   18   51 1     
   54   20   52 1     
   55   20   53 1     
   56   22   54 1     
   57   22   55 1     
   58   24   56 1     
   59   24   57 1     
   60   25   58 1     
@<TRIPOS>SUBSTRUCTURE
      1 S1             1
@<TRIPOS>SET
LONE_PAIRS      STATIC     ATOMS    <user>   **** ""
15 44 45 46 47 48 49 50 51 52 53 54 55 56 57 58
DONOR_HYDROGENS      STATIC     ATOMS    <user>   **** ""
4 37 41 42 43
ATOM$BLUE        STATIC     ATOMS    COLORGROUP SYSTEM
15 44 45 46 47 48 49 50 51 52 53 54 55 56 57 58
ATOM$RED        STATIC     ATOMS    COLORGROUP SYSTEM
4 37 41 42 43
