AV-unprocessed.smi:244|AV-procd|sdf|1869|dock1
  -GOLD-   2262020503D 1   1.00000     0.00000
 Structure written by MMmdl.
 57 61  0  0  0  0  0  0  0  0  2 V2000
  147.8563  133.1366  153.0401 C   0  0  0  0  0  0  0  0  0  0  0  0
  146.6944  132.2718  153.3499 N   0  3  2  0  0  0  0  0  0  0  0  0
  146.4232  131.2398  152.3182 C   0  0  0  0  0  0  0  0  0  0  0  0
  145.7202  131.8324  151.0866 C   0  0  0  0  0  0  0  0  0  0  0  0
  144.4195  132.5524  151.4944 C   0  0  2  0  0  0  0  0  0  0  0  0
  143.7271  133.1048  150.3743 O   0  0  0  0  0  0  0  0  0  0  0  0
  144.3552  134.2428  149.7913 C   0  0  0  0  0  0  0  0  0  0  0  0
  144.5299  135.3387  150.8499 C   0  0  0  0  0  0  0  0  0  0  0  0
  145.2650  134.8295  152.0016 N   0  0  0  0  0  0  0  0  0  0  0  0
  145.5785  135.8440  152.8417 C   0  0  0  0  0  0  0  0  0  0  0  0
  145.3518  135.7284  154.1771 N   0  0  0  0  0  0  0  0  0  0  0  0
  145.6582  136.7390  154.9966 C   0  0  0  0  0  0  0  0  0  0  0  0
  146.1886  137.9264  154.6955 N   0  0  0  0  0  0  0  0  0  0  0  0
  146.4085  138.0459  153.3546 C   0  0  0  0  0  0  0  0  0  0  0  0
  146.1261  137.0638  152.3655 C   0  0  0  0  0  0  0  0  0  0  0  0
  146.4737  137.5373  151.1072 N   0  0  0  0  0  0  0  0  0  0  0  0
  146.9390  138.7346  151.3393 C   0  0  0  0  0  0  0  0  0  0  0  0
  146.9503  139.1147  152.6630 N   0  0  0  0  0  0  0  0  0  0  0  0
  147.4264  140.3789  153.2022 C   0  0  0  0  0  0  0  0  0  0  0  0
  148.4841  140.2242  154.3236 C   0  0  0  0  0  0  0  0  0  0  0  0
  147.8021  139.9052  155.5243 O   0  0  0  0  0  0  0  0  0  0  0  0
  149.5001  139.0977  154.0321 C   0  0  0  0  0  0  0  0  0  0  0  0
  150.6649  139.0929  155.0383 C   0  0  0  0  0  0  0  0  0  0  0  0
  151.2941  140.3681  155.0652 O   0  0  0  0  0  0  0  0  0  0  0  0
  150.4217  141.3999  155.5095 C   0  0  0  0  0  0  0  0  0  0  0  0
  149.2441  141.5500  154.5300 C   0  0  0  0  0  0  0  0  0  0  0  0
  144.6642  133.6230  152.5850 C   0  0  2  0  0  0  0  0  0  0  0  0
  145.4712  133.0096  153.7660 C   0  0  0  0  0  0  0  0  0  0  0  0
  147.7178  133.6923  152.1139 H   0  0  0  0  0  0  0  0  0  0  0  0
  148.7585  132.5337  152.9341 H   0  0  0  0  0  0  0  0  0  0  0  0
  148.0308  133.8526  153.8440 H   0  0  0  0  0  0  0  0  0  0  0  0
  147.3527  130.7482  152.0284 H   0  0  0  0  0  0  0  0  0  0  0  0
  145.7932  130.4671  152.7606 H   0  0  0  0  0  0  0  0  0  0  0  0
  146.4042  132.5098  150.5778 H   0  0  0  0  0  0  0  0  0  0  0  0
  145.4930  131.0379  150.3752 H   0  0  0  0  0  0  0  0  0  0  0  0
  143.7527  131.7978  151.9137 H   0  0  0  0  0  0  0  0  0  0  0  0
  145.3114  133.9771  149.3414 H   0  0  0  0  0  0  0  0  0  0  0  0
  143.7260  134.6090  148.9799 H   0  0  0  0  0  0  0  0  0  0  0  0
  145.0523  136.1904  150.4110 H   0  0  0  0  0  0  0  0  0  0  0  0
  143.5520  135.6965  151.1763 H   0  0  0  0  0  0  0  0  0  0  0  0
  145.4502  136.5720  156.0432 H   0  0  0  0  0  0  0  0  0  0  0  0
  147.3012  139.3744  150.5476 H   0  0  0  0  0  0  0  0  0  0  0  0
  147.8411  140.9590  152.3764 H   0  0  0  0  0  0  0  0  0  0  0  0
  146.5660  140.9429  153.5652 H   0  0  0  0  0  0  0  0  0  0  0  0
  148.0455  139.0300  155.7855 H   0  0  0  0  0  0  0  0  0  0  0  0
  149.0125  138.1222  154.0374 H   0  0  0  0  0  0  0  0  0  0  0  0
  149.9083  139.2329  153.0295 H   0  0  0  0  0  0  0  0  0  0  0  0
  150.3193  138.8237  156.0376 H   0  0  0  0  0  0  0  0  0  0  0  0
  151.4028  138.3445  154.7491 H   0  0  0  0  0  0  0  0  0  0  0  0
  150.0703  141.1865  156.5201 H   0  0  0  0  0  0  0  0  0  0  0  0
  150.9827  142.3333  155.5618 H   0  0  0  0  0  0  0  0  0  0  0  0
  149.6377  141.8917  153.5718 H   0  0  0  0  0  0  0  0  0  0  0  0
  148.5664  142.3312  154.8766 H   0  0  0  0  0  0  0  0  0  0  0  0
  143.6873  133.9196  152.9707 H   0  0  0  0  0  0  0  0  0  0  0  0
  144.8282  132.2881  154.2715 H   0  0  0  0  0  0  0  0  0  0  0  0
  145.7218  133.7470  154.5283 H   0  0  0  0  0  0  0  0  0  0  0  0
  146.9812  131.7586  154.1714 H   0  0  0  0  0  0  0  0  0  0  0  0
  1  2  1  0  0  0  0
  1 29  1  0  0  0  0
  1 30  1  0  0  0  0
  1 31  1  0  0  0  0
  2 28  1  0  0  0  0
  2  3  1  0  0  0  0
  2 57  1  0  0  0  0
  3  4  1  0  0  0  0
  3 32  1  0  0  0  0
  3 33  1  0  0  0  0
  4  5  1  0  0  0  0
  4 34  1  0  0  0  0
  4 35  1  0  0  0  0
  5 27  1  0  0  0  0
  5  6  1  0  0  0  0
  5 36  1  0  0  0  0
  6  7  1  0  0  0  0
  7  8  1  0  0  0  0
  7 37  1  0  0  0  0
  7 38  1  0  0  0  0
  8  9  1  0  0  0  0
  8 39  1  0  0  0  0
  8 40  1  0  0  0  0
  9 10  1  0  0  0  0
  9 27  1  0  0  0  0
 10 15  1  0  0  0  0
 10 11  2  0  0  0  0
 11 12  1  0  0  0  0
 12 13  2  0  0  0  0
 12 41  1  0  0  0  0
 13 14  1  0  0  0  0
 14 18  1  0  0  0  0
 14 15  2  0  0  0  0
 15 16  1  0  0  0  0
 16 17  2  0  0  0  0
 17 18  1  0  0  0  0
 17 42  1  0  0  0  0
 18 19  1  0  0  0  0
 19 20  1  0  0  0  0
 19 43  1  0  0  0  0
 19 44  1  0  0  0  0
 20 26  1  0  0  0  0
 20 21  1  0  0  0  0
 20 22  1  0  0  0  0
 21 45  1  0  0  0  0
 22 23  1  0  0  0  0
 22 46  1  0  0  0  0
 22 47  1  0  0  0  0
 23 24  1  0  0  0  0
 23 48  1  0  0  0  0
 23 49  1  0  0  0  0
 24 25  1  0  0  0  0
 25 26  1  0  0  0  0
 25 50  1  0  0  0  0
 25 51  1  0  0  0  0
 26 52  1  0  0  0  0
 26 53  1  0  0  0  0
 27 28  1  0  0  0  0
 27 54  1  0  0  0  0
 28 55  1  0  0  0  0
 28 56  1  0  0  0  0
M  CHG  1   2   1
M  END
> <s_m_source_file>
AV-unprocessed.smi

> <i_m_source_file_index>
244

> <i_lp_mmshare_version>
43012

> <i_f3d_flags>
0

> <s_epik_input>
W0NIMl0xW0NIMl1OKFtDSDNdKVtDSDJdW0NAQEhdKFtDQEhdMTIpTihbQ0gyXVtDSDJdTzIpYyhuW2NIXW4zKWMoYzM0KW5bY0hdbjRbQ0gyXUM1KFtPSF0pW0NIMl1bQ0gyXU9bQ0gyXVtDSDJdNQ==

> <s_epik_cmdline>
J2VwaWtfcHl0aG9uJywgJy1waCcsICc3LjAnLCAnLXRuJywgJzgnLCAnLW1hJywgJzIwMCcsICctbWV0YWxfYmluZGluZycsICctaW1hZScsICc8aW5maWxlLm1hZT4nLCAnLW9tYWUnLCAnPG91dGZpbGUubWFlPic=

> <r_lp_tautomer_probability>
1

> <r_epik_Ionization_Penalty>
0.0136215

> <r_epik_Ionization_Penalty_Charging>
0.0131385

> <r_epik_Ionization_Penalty_Neutral>
0.000483022

> <r_epik_State_Penalty>
0.0104001

> <r_epik_Charging_Adjusted_Penalty>
0.0235387

> <i_epik_Tot_Q>
1

> <i_epik_Tot_abs_Q>
1

> <r_epik_Metal_State_Penalty>
0.0104469

> <b_epik_Metal_Only>
0

> <s_lp_Force_Field>
OPLS_2005

> <r_lp_Energy>
50.9375

> <b_lp_Chiralities_Consistent>
1

> <s_lp_Variant>
AV-unprocessed.smi:244-6

> <Gold.Version>
5.8.1

> <Gold.Id.Protein>
6NUR|6NUR_protein|mol2

> <Gold.PLP.Fitness>
41.3130

> <Gold.PLP.PLP>
-37.3720

> <Gold.PLP.part.hbond>
-1.2691

> <Gold.PLP.part.metal>
0.0000

> <Gold.PLP.part.buried>
1.3144

> <Gold.PLP.part.nonpolar>
-40.2397

> <Gold.PLP.part.repulsive>
2.4849

> <Gold.PLP.ligand.clash>
0.0000

> <Gold.PLP.ligand.torsion>
0.4431

> <Gold.PLP.Chemscore.Hbond>
1.0000

> <Gold.PLP.Chemscore.CHOScore>
0.5490

> <Gold.PLP.Chemscore.Metal>
0.0000

> <Gold.Chemscore.Hbonds>
donor molecule, donor type, donor heavy atom, donor atom, acceptor molecule, acceptor atom, score
      P1  H  7989  7998       L1    24  1.00
      L1  C    17    42       P1  7957  0.56

> <Gold.PLP.Chemscore.Internal.Correction>
0.1803

> <Gold.Rescore>
     Score         DG    S(hbond)    S(metal)    S(lipo)     H(rot)  DE(clash)    DE(int)     intcor
      8.51     -13.13       0.62        0.00      93.34       2.09       1.33       3.29       ----

> <Gold.Chemscore.Fitness>
8.5054

> <Gold.Chemscore.DG>
-13.1316

> <Gold.Chemscore.ZeroCoef>
-5.4800

> <Gold.Chemscore.Hbond>
0.6241

> <Gold.Chemscore.Metal>
0.0000

> <Gold.Chemscore.Lipo>
93.3353

> <Gold.Chemscore.Internal_Hbond>
0.0000

> <Gold.Chemscore.DEClash>
1.3318

> <Gold.Chemscore.DEInternal>
3.2944

> <Gold.Chemscore.Rot>
2.0911

> <Gold.Chemscore.Internal.Correction>
   9.000000E+99

> <Gold.Chemscore.Hbonds>
donor molecule, donor type, donor heavy atom, donor atom, acceptor molecule, acceptor atom, score
      P1  H  7989  7998       L1    24  0.22

> <Gold.Chemscore.Hbond.Weighted>
-2.0845

> <Gold.Chemscore.Metal.Weighted>
-0.0000

> <Gold.Chemscore.Lipo.Weighted>
-10.9202

> <Gold.Chemscore.Internal_Hbond.Weighted>
0.0000

> <Gold.Chemscore.DEClash.Weighted>
1.3318

> <Gold.Chemscore.DEInternal.Weighted>
3.2944

> <Gold.Chemscore.Rot.Weighted>
5.3531

> <Gold.Chemscore.Internal.Correction.Weighted>
   9.000000E+99

> <Gold.Protein.RotatedTorsions>
[ 6907 6896 6895 6894 ] final   64.75 input  -60.11 | X-H torsion
[ 7974 7965 7964 7962 ] final   82.48 input  175.53 | X-H torsion
[ 8008 7997 7996 7995 ] final  -49.11 input   59.86 | X-H torsion
[ 10167 10162 10161 10158 ] final -126.60 input  -65.29 | X-H torsion
[ 10718 10713 10712 10709 ] final  115.20 input   66.30 | X-H torsion
[ 10763 10752 10751 10750 ] final   -2.42 input  -60.55 | X-H torsion
[ 11005 11000 10999 10996 ] final  -53.61 input  -57.11 | X-H torsion

> <Gold.Protein.ActiveResidues>
 VAL166  LYS551  ARG553  GLY616  TRP617  ASP618  TYR619  PRO620  LYS621  CYS622 
 ASP623  PHE694  ASN695  SER759  ASP760  ASP761  ALA762  ILE779  LEU786  VAL792 
 PHE793  MET794  SER795  GLU796  ALA797  LYS798  CYS799  TRP800  GLU811  SER814 

> <Gold.Protein.RotatedAtoms>
  152.4356  134.5693  159.9916 H   0  0  0  0  0  0  0  0  0  0  0  0  # atno 6907 bound_to 6896
  151.5805  133.3372  159.3015 H   0  0  0  0  0  0  0  0  0  0  0  0  # atno 6908 bound_to 6896
  150.8254  134.7517  159.6872 H   0  0  0  0  0  0  0  0  0  0  0  0  # atno 6909 bound_to 6896
  145.6245  139.2392  143.2120 H   0  0  0  0  0  0  0  0  0  0  0  0  # atno 7974 bound_to 7965
  154.4039  140.1305  156.4449 H   0  0  0  0  0  0  0  0  0  0  0  0  # atno 8008 bound_to 7997
  155.7422  140.3489  155.5090 H   0  0  0  0  0  0  0  0  0  0  0  0  # atno 8009 bound_to 7997
  155.9028  140.1022  157.1327 H   0  0  0  0  0  0  0  0  0  0  0  0  # atno 8010 bound_to 7997
  139.9698  143.5858  152.2417 H   0  0  0  0  0  0  0  0  0  0  0  0  # atno 10167 bound_to 10162
  157.6236  131.1009  150.7295 H   0  0  0  0  0  0  0  0  0  0  0  0  # atno 10718 bound_to 10713
  153.3578  135.6989  153.6736 H   0  0  0  0  0  0  0  0  0  0  0  0  # atno 10763 bound_to 10752
  153.5437  135.3567  155.2730 H   0  0  0  0  0  0  0  0  0  0  0  0  # atno 10764 bound_to 10752
  154.8663  135.4210  154.2829 H   0  0  0  0  0  0  0  0  0  0  0  0  # atno 10765 bound_to 10752
  141.0985  133.6621  156.4198 H   0  0  0  0  0  0  0  0  0  0  0  0  # atno 11005 bound_to 11000
  146.1405  140.7064  142.9369 LP  0  0  0  0  0  0  0  0  0  0  0  0  # atno 17320 bound_to 7965
  144.7218  140.4397  143.7002 LP  0  0  0  0  0  0  0  0  0  0  0  0  # atno 17321 bound_to 7965
  139.6490  144.7660  151.2186 LP  0  0  0  0  0  0  0  0  0  0  0  0  # atno 17342 bound_to 10162
  140.7526  143.6192  150.8530 LP  0  0  0  0  0  0  0  0  0  0  0  0  # atno 17343 bound_to 10162
  156.7648  130.4810  149.5430 LP  0  0  0  0  0  0  0  0  0  0  0  0  # atno 17370 bound_to 10713
  156.1395  130.6235  151.0447 LP  0  0  0  0  0  0  0  0  0  0  0  0  # atno 17371 bound_to 10713
  140.5082  134.6421  157.5274 LP  0  0  0  0  0  0  0  0  0  0  0  0  # atno 17394 bound_to 11000
  139.9828  134.7109  155.9828 LP  0  0  0  0  0  0  0  0  0  0  0  0  # atno 17395 bound_to 11000

$$$$
