#       Name:                AV-unprocessed.smi:2095
#       Creating user name   scv26
#       Creation time:       Fri Mar 27 11:27:47 2020


#       File generated by GOLD software.
#

@<TRIPOS>MOLECULE
AV-unprocessed.smi:2095
    47    48     1
SMALL
NO_CHARGES


@<TRIPOS>ATOM
      1 ****        -3.4596  -0.6349  -3.2964 C.3            1 S1                 0.0000
      2 ****        -2.1380  -1.1664  -2.7232 C.3            1 S1                 0.0000
      3 ****        -2.2270  -2.6690  -2.4186 C.3            1 S1                 0.0000
      4 ****        -0.9046  -3.1606  -1.8245 C.3            1 S1                 0.0000
      5 ****        -0.5294  -2.3388  -0.5832 C.3            1 S1                 0.0000
      6 ****        -0.4265  -0.8846  -0.8962 N.4            1 S1                 1.0000
      7 ****         0.1390  -0.1025   0.2537 C.3            1 S1                 0.0000
      8 ****        -0.2461   1.3986   0.2475 C.3            1 S1                 0.0000
      9 ****         1.6798  -0.2747   0.2968 C.3            1 S1                 0.0000
     10 ****         2.2805   0.3956   1.4464 N.am           1 S1                 0.0000
     11 ****         3.0646   1.4846   1.3952 C.2            1 S1                 0.0000
     12 ****         3.4336   2.0095   0.3455 O.2            1 S1                 0.0000
     13 ****         3.4699   2.0928   2.7379 C.3            1 S1                 0.0000
     14 ****         2.3427   2.7704   3.3517 N.pl3          1 S1                 0.0000
     15 ****         1.4433   2.3458   4.2416 C.2            1 S1                 0.0000
     16 ****         0.5467   3.2807   4.5152 N.2            1 S1                 0.0000
     17 ****         0.9514   4.3450   3.7267 N.2            1 S1                 0.0000
     18 ****         2.0162   4.0480   3.0336 N.2            1 S1                 0.0000
     19 ****        -1.7103  -0.3780  -1.4669 C.3            1 S1                 0.0000
     20 ****        -4.2762  -0.7502  -2.5830 H              1 S1                 0.0000
     21 ****        -3.7356  -1.1681  -4.2067 H              1 S1                 0.0000
     22 ****        -3.3834   0.4237  -3.5462 H              1 S1                 0.0000
     23 ****        -1.3703  -1.0234  -3.4855 H              1 S1                 0.0000
     24 ****        -3.0406  -2.8622  -1.7178 H              1 S1                 0.0000
     25 ****        -2.4565  -3.2280  -3.3266 H              1 S1                 0.0000
     26 ****        -0.9858  -4.2160  -1.5619 H              1 S1                 0.0000
     27 ****        -0.1120  -3.0863  -2.5704 H              1 S1                 0.0000
     28 ****        -1.2754  -2.4885   0.1992 H              1 S1                 0.0000
     29 ****         0.4101  -2.7233  -0.1904 H              1 S1                 0.0000
     30 ****        -0.2792  -0.5189   1.1720 H              1 S1                 0.0000
     31 ****         0.1681   1.9268   1.1058 H              1 S1                 0.0000
     32 ****        -1.3238   1.5469   0.3131 H              1 S1                 0.0000
     33 ****         0.1174   1.9014  -0.6495 H              1 S1                 0.0000
     34 ****         1.9595  -1.3236   0.3761 H              1 S1                 0.0000
     35 ****         2.1158   0.0786  -0.6391 H              1 S1                 0.0000
     36 ****         2.0411   0.0320   2.3576 H              1 S1                 0.0000
     37 ****         3.8260   1.3120   3.4114 H              1 S1                 0.0000
     38 ****         4.2870   2.8033   2.6027 H              1 S1                 0.0000
     39 ****         1.4381   1.3564   4.6747 H              1 S1                 0.0000
     40 ****        -1.6079   0.6636  -1.7694 H              1 S1                 0.0000
     41 ****        -2.4903  -0.4210  -0.7048 H              1 S1                 0.0000
     42 ****         0.2478  -0.7953  -1.6431 H              1 S1                 0.0000
     43 ****         3.1490   1.6251  -0.5328 LP             1 S1                 0.0000
     44 ****         4.0181   2.8205   0.3705 LP             1 S1                 0.0000
     45 ****        -0.2330   3.2306   5.1393 LP             1 S1                 0.0000
     46 ****         0.4862   5.2295   3.6928 LP             1 S1                 0.0000
     47 ****         2.4978   4.6457   2.3927 LP             1 S1                 0.0000
@<TRIPOS>BOND
    1    1    2 1     
    2    1   20 1     
    3    1   21 1     
    4    1   22 1     
    5    2   19 1     
    6    2    3 1     
    7    2   23 1     
    8    3    4 1     
    9    3   24 1     
   10    3   25 1     
   11    4    5 1     
   12    4   26 1     
   13    4   27 1     
   14    5    6 1     
   15    5   28 1     
   16    5   29 1     
   17    6    7 1     
   18    6   19 1     
   19    6   42 1     
   20    7    8 1     
   21    7    9 1     
   22    7   30 1     
   23    8   31 1     
   24    8   32 1     
   25    8   33 1     
   26    9   10 1     
   27    9   34 1     
   28    9   35 1     
   29   10   11 am    
   30   10   36 1     
   31   11   12 2     
   32   11   13 1     
   33   13   14 1     
   34   13   37 1     
   35   13   38 1     
   36   14   18 1     
   37   14   15 1     
   38   15   16 2     
   39   15   39 1     
   40   16   17 1     
   41   17   18 2     
   42   19   40 1     
   43   19   41 1     
   44   12   43 1     
   45   12   44 1     
   46   16   45 1     
   47   17   46 1     
   48   18   47 1     
@<TRIPOS>SUBSTRUCTURE
      1 S1             1
@<TRIPOS>SET
LONE_PAIRS      STATIC     ATOMS    <user>   **** ""
5 43 44 45 46 47
DONOR_HYDROGENS      STATIC     ATOMS    <user>   **** ""
2 42 36
ATOM$BLUE        STATIC     ATOMS    COLORGROUP SYSTEM
5 43 44 45 46 47
ATOM$RED        STATIC     ATOMS    COLORGROUP SYSTEM
2 42 36
