AV-unprocessed.smi:639|AV-procd|sdf|3146|dock2
  -GOLD-   22720 0 73D 1   1.00000     0.00000
 Structure written by MMmdl.
 23 24  0  0  0  0  0  0  0  0  2 V2000
  152.4893  144.3918  158.3549 C   0  0  0  0  0  0  0  0  0  0  0  0
  151.7449  143.1761  158.1062 N   0  0  0  0  0  0  0  0  0  0  0  0
  150.9560  142.8561  157.0232 C   0  0  0  0  0  0  0  0  0  0  0  0
  150.4521  141.6008  157.2300 C   0  0  0  0  0  0  0  0  0  0  0  0
  149.5292  140.7930  156.3361 C   0  0  1  0  0  0  0  0  0  0  0  0
  149.1964  139.4168  156.9440 C   0  0  0  0  0  0  0  0  0  0  0  0
  148.3091  141.5043  156.0137 N   0  0  0  0  0  0  0  0  0  0  0  0
  148.2235  141.7578  154.7086 C   0  0  0  0  0  0  0  0  0  0  0  0
  147.2672  142.3628  154.2298 O   0  0  0  0  0  0  0  0  0  0  0  0
  149.2994  141.2616  154.0670 N   0  5  0  0  0  0  0  0  0  0  0  0
  150.1398  140.6579  154.9358 C   0  0  0  0  0  0  0  0  0  0  0  0
  151.2068  140.0784  154.7336 O   0  0  0  0  0  0  0  0  0  0  0  0
  151.0066  141.2383  158.4936 C   0  0  0  0  0  0  0  0  0  0  0  0
  151.7797  142.1788  159.0120 N   0  0  0  0  0  0  0  0  0  0  0  0
  152.3516  145.0904  157.5292 H   0  0  0  0  0  0  0  0  0  0  0  0
  153.5505  144.1614  158.4520 H   0  0  0  0  0  0  0  0  0  0  0  0
  152.1370  144.8577  159.2757 H   0  0  0  0  0  0  0  0  0  0  0  0
  150.8135  143.5419  156.2010 H   0  0  0  0  0  0  0  0  0  0  0  0
  150.0983  138.8312  157.1258 H   0  0  0  0  0  0  0  0  0  0  0  0
  148.5544  138.8312  156.2844 H   0  0  0  0  0  0  0  0  0  0  0  0
  148.6766  139.5251  157.8963 H   0  0  0  0  0  0  0  0  0  0  0  0
  147.6244  141.7796  156.7020 H   0  0  0  0  0  0  0  0  0  0  0  0
  150.8711  140.3211  159.0476 H   0  0  0  0  0  0  0  0  0  0  0  0
  1  2  1  0  0  0  0
  1 15  1  0  0  0  0
  1 16  1  0  0  0  0
  1 17  1  0  0  0  0
  2 14  1  0  0  0  0
  2  3  1  0  0  0  0
  3  4  2  0  0  0  0
  3 18  1  0  0  0  0
  4  5  1  0  0  0  0
  4 13  1  0  0  0  0
  5 11  1  0  0  0  0
  5  6  1  0  0  0  0
  5  7  1  0  0  0  0
  6 19  1  0  0  0  0
  6 20  1  0  0  0  0
  6 21  1  0  0  0  0
  7  8  1  0  0  0  0
  7 22  1  0  0  0  0
  8  9  2  0  0  0  0
  8 10  1  0  0  0  0
 10 11  1  0  0  0  0
 11 12  2  0  0  0  0
 13 14  2  0  0  0  0
 13 23  1  0  0  0  0
M  CHG  1  10  -1
M  END
> <s_m_source_file>
AV-unprocessed.smi

> <i_m_source_file_index>
639

> <i_lp_mmshare_version>
43012

> <i_f3d_flags>
0

> <s_epik_input>
W0NIM11uMVtjSF1jKFtjSF1uMSlbQ0BAXTIoW0NIM10pW05IXUMoPU8pW05IXUMyPU8=

> <s_epik_cmdline>
J2VwaWtfcHl0aG9uJywgJy1waCcsICc3LjAnLCAnLXRuJywgJzgnLCAnLW1hJywgJzIwMCcsICctbWV0YWxfYmluZGluZycsICctaW1hZScsICc8aW5maWxlLm1hZT4nLCAnLW9tYWUnLCAnPG91dGZpbGUubWFlPic=

> <r_lp_tautomer_probability>
1

> <r_epik_Ionization_Penalty>
1.82128

> <r_epik_Ionization_Penalty_Charging>
1.82122

> <r_epik_Ionization_Penalty_Neutral>
5.526e-05

> <r_epik_State_Penalty>
1.93645

> <r_epik_Charging_Adjusted_Penalty>
3.75767

> <i_epik_Tot_Q>
-1

> <i_epik_Tot_abs_Q>
1

> <r_epik_Metal_State_Penalty>
0.532903

> <b_epik_Metal_Only>
0

> <s_lp_Force_Field>
OPLS_2005

> <r_lp_Energy>
3.65424

> <b_lp_Chiralities_Consistent>
1

> <s_lp_Variant>
AV-unprocessed.smi:639-3

> <Gold.Version>
5.8.1

> <Gold.Id.Protein>
6NUR|6NUR_protein|mol2

> <Gold.PLP.Fitness>
31.3152

> <Gold.PLP.PLP>
-23.9336

> <Gold.PLP.part.hbond>
-3.0356

> <Gold.PLP.part.metal>
0.0000

> <Gold.PLP.part.buried>
-1.4794

> <Gold.PLP.part.nonpolar>
-20.3492

> <Gold.PLP.part.repulsive>
0.4259

> <Gold.PLP.ligand.clash>
0.0000

> <Gold.PLP.ligand.torsion>
0.0441

> <Gold.PLP.Chemscore.Hbond>
1.4768

> <Gold.PLP.Chemscore.CHOScore>
0.9838

> <Gold.PLP.Chemscore.Metal>
0.0000

> <Gold.Chemscore.Hbonds>
donor molecule, donor type, donor heavy atom, donor atom, acceptor molecule, acceptor atom, score
      P1  H  7989  7998       L1    12  0.89
      P1  H  8011  8017       L1    10  0.56
      L1  C     3    18       P1  8028  0.96

> <Gold.PLP.Chemscore.Internal.Correction>
0.0881

> <Gold.Rescore>
     Score         DG    S(hbond)    S(metal)    S(lipo)     H(rot)  DE(clash)    DE(int)     intcor
     10.96     -11.23       1.06        0.00      40.80       1.00       0.23       0.04       ----

> <Gold.Chemscore.Fitness>
10.9586

> <Gold.Chemscore.DG>
-11.2327

> <Gold.Chemscore.ZeroCoef>
-5.4800

> <Gold.Chemscore.Hbond>
1.0595

> <Gold.Chemscore.Metal>
0.0000

> <Gold.Chemscore.Lipo>
40.8018

> <Gold.Chemscore.Internal_Hbond>
0.0000

> <Gold.Chemscore.DEClash>
0.2301

> <Gold.Chemscore.DEInternal>
0.0440

> <Gold.Chemscore.Rot>
1.0000

> <Gold.Chemscore.Internal.Correction>
   9.000000E+99

> <Gold.Chemscore.Hbonds>
donor molecule, donor type, donor heavy atom, donor atom, acceptor molecule, acceptor atom, score
      P1  H  7989  7998       L1    12  0.17
      P1  H  8011  8017       L1    10  0.46

> <Gold.Chemscore.Hbond.Weighted>
-3.5389

> <Gold.Chemscore.Metal.Weighted>
-0.0000

> <Gold.Chemscore.Lipo.Weighted>
-4.7738

> <Gold.Chemscore.Internal_Hbond.Weighted>
0.0000

> <Gold.Chemscore.DEClash.Weighted>
0.2301

> <Gold.Chemscore.DEInternal.Weighted>
0.0440

> <Gold.Chemscore.Rot.Weighted>
2.5600

> <Gold.Chemscore.Internal.Correction.Weighted>
   9.000000E+99

> <Gold.Protein.RotatedTorsions>
[ 6907 6896 6895 6894 ] final  -40.62 input  -60.11 | X-H torsion
[ 7974 7965 7964 7962 ] final   87.54 input  175.53 | X-H torsion
[ 8008 7997 7996 7995 ] final   33.61 input   59.86 | X-H torsion
[ 10167 10162 10161 10158 ] final   62.81 input  -65.29 | X-H torsion
[ 10718 10713 10712 10709 ] final   97.44 input   66.30 | X-H torsion
[ 10763 10752 10751 10750 ] final  -54.52 input  -60.55 | X-H torsion
[ 11005 11000 10999 10996 ] final  -85.24 input  -57.11 | X-H torsion

> <Gold.Protein.ActiveResidues>
 VAL166  LYS551  ARG553  GLY616  TRP617  ASP618  TYR619  PRO620  LYS621  CYS622 
 ASP623  PHE694  ASN695  SER759  ASP760  ASP761  ALA762  ILE779  LEU786  VAL792 
 PHE793  MET794  SER795  GLU796  ALA797  LYS798  CYS799  TRP800  GLU811  SER814 

> <Gold.Protein.RotatedAtoms>
  150.9763  134.9127  159.7817 H   0  0  0  0  0  0  0  0  0  0  0  0  # atno 6907 bound_to 6896
  152.5207  134.3472  159.9248 H   0  0  0  0  0  0  0  0  0  0  0  0  # atno 6908 bound_to 6896
  151.3480  133.3895  159.2712 H   0  0  0  0  0  0  0  0  0  0  0  0  # atno 6909 bound_to 6896
  145.5576  139.2301  143.2477 H   0  0  0  0  0  0  0  0  0  0  0  0  # atno 7974 bound_to 7965
  155.1415  140.3266  155.4451 H   0  0  0  0  0  0  0  0  0  0  0  0  # atno 8008 bound_to 7997
  156.2603  140.1993  156.6480 H   0  0  0  0  0  0  0  0  0  0  0  0  # atno 8009 bound_to 7997
  154.6539  140.0555  156.9973 H   0  0  0  0  0  0  0  0  0  0  0  0  # atno 8010 bound_to 7997
  140.1399  144.4564  150.6817 H   0  0  0  0  0  0  0  0  0  0  0  0  # atno 10167 bound_to 10162
  157.6912  131.0609  150.4645 H   0  0  0  0  0  0  0  0  0  0  0  0  # atno 10718 bound_to 10713
  154.1761  135.6451  153.5022 H   0  0  0  0  0  0  0  0  0  0  0  0  # atno 10763 bound_to 10752
  153.0071  135.5395  154.6562 H   0  0  0  0  0  0  0  0  0  0  0  0  # atno 10764 bound_to 10752
  154.5914  135.2934  155.0603 H   0  0  0  0  0  0  0  0  0  0  0  0  # atno 10765 bound_to 10752
  141.1643  133.7389  156.8986 H   0  0  0  0  0  0  0  0  0  0  0  0  # atno 11005 bound_to 11000
  146.1873  140.6400  142.9161 LP  0  0  0  0  0  0  0  0  0  0  0  0  # atno 17320 bound_to 7965
  144.7498  140.5163  143.6809 LP  0  0  0  0  0  0  0  0  0  0  0  0  # atno 17321 bound_to 7965
  140.6767  143.2308  151.5489 LP  0  0  0  0  0  0  0  0  0  0  0  0  # atno 17342 bound_to 10162
  139.5477  144.2477  152.1473 LP  0  0  0  0  0  0  0  0  0  0  0  0  # atno 17343 bound_to 10162
  156.4987  130.4112  149.6365 LP  0  0  0  0  0  0  0  0  0  0  0  0  # atno 17370 bound_to 10713
  156.3349  130.7351  151.2287 LP  0  0  0  0  0  0  0  0  0  0  0  0  # atno 17371 bound_to 10713
  140.1598  134.9173  157.2700 LP  0  0  0  0  0  0  0  0  0  0  0  0  # atno 17394 bound_to 11000
  140.2624  134.3555  155.7402 LP  0  0  0  0  0  0  0  0  0  0  0  0  # atno 17395 bound_to 11000

$$$$
