AV-unprocessed.smi:869|AV-procd|sdf|4004|dock6
  -GOLD-   22720 1493D 1   1.00000     0.00000
 Structure written by MMmdl.
 46 48  0  0  0  0  0  0  0  0  1 V2000
  151.6965  138.0489  154.5560 C   0  0  0  0  0  0  0  0  0  0  0  0
  151.5347  139.3974  154.9584 O   0  0  0  0  0  0  0  0  0  0  0  0
  150.5850  139.5415  156.0028 C   0  0  0  0  0  0  0  0  0  0  0  0
  151.1462  140.5235  156.9916 C   0  0  0  0  0  0  0  0  0  0  0  0
  150.7102  141.7836  157.0546 N   0  0  0  0  0  0  0  0  0  0  0  0
  151.4711  142.3225  158.0725 C   0  0  0  0  0  0  0  0  0  0  0  0
  151.4776  143.6233  158.6251 C   0  0  0  0  0  0  0  0  0  0  0  0
  152.3584  143.9471  159.6778 C   0  0  0  0  0  0  0  0  0  0  0  0
  153.2436  142.9772  160.1914 C   0  0  0  0  0  0  0  0  0  0  0  0
  153.2538  141.6757  159.6539 C   0  0  0  0  0  0  0  0  0  0  0  0
  152.3722  141.3578  158.6032 C   0  0  0  0  0  0  0  0  0  0  0  0
  152.1349  140.2015  157.8665 N   0  0  0  0  0  0  0  0  0  0  0  0
  152.8299  138.9323  158.0369 C   0  0  0  0  0  0  0  0  0  0  0  0
  152.6264  138.3322  159.4437 C   0  0  1  0  0  0  0  0  0  0  0  0
  151.6443  137.3154  159.4497 O   0  0  0  0  0  0  0  0  0  0  0  0
  153.9177  137.7874  160.0753 C   0  0  0  0  0  0  0  0  0  0  0  0
  153.6672  137.3860  161.4169 O   0  0  0  0  0  0  0  0  0  0  0  0
  154.4937  137.8668  162.4094 C   0  0  0  0  0  0  0  0  0  0  0  0
  154.4469  137.2080  163.6551 C   0  0  0  0  0  0  0  0  0  0  0  0
  155.2569  137.6313  164.7262 C   0  0  0  0  0  0  0  0  0  0  0  0
  156.1291  138.7250  164.5634 C   0  0  0  0  0  0  0  0  0  0  0  0
  156.9961  139.1794  165.7194 C   0  0  0  0  0  0  0  0  0  0  0  0
  156.1841  139.3918  163.3231 C   0  0  0  0  0  0  0  0  0  0  0  0
  155.3735  138.9674  162.2519 C   0  0  0  0  0  0  0  0  0  0  0  0
  152.4254  137.9938  153.7474 H   0  0  0  0  0  0  0  0  0  0  0  0
  150.7578  137.6291  154.1919 H   0  0  0  0  0  0  0  0  0  0  0  0
  152.0600  137.4334  155.3801 H   0  0  0  0  0  0  0  0  0  0  0  0
  149.6407  139.8899  155.5865 H   0  0  0  0  0  0  0  0  0  0  0  0
  150.4096  138.5890  156.5051 H   0  0  0  0  0  0  0  0  0  0  0  0
  150.8027  144.3725  158.2384 H   0  0  0  0  0  0  0  0  0  0  0  0
  152.3542  144.9442  160.0933 H   0  0  0  0  0  0  0  0  0  0  0  0
  153.9146  143.2330  160.9983 H   0  0  0  0  0  0  0  0  0  0  0  0
  153.9304  140.9302  160.0450 H   0  0  0  0  0  0  0  0  0  0  0  0
  152.5185  138.2390  157.2562 H   0  0  0  0  0  0  0  0  0  0  0  0
  153.8931  139.1050  157.8660 H   0  0  0  0  0  0  0  0  0  0  0  0
  152.2455  139.1167  160.0989 H   0  0  0  0  0  0  0  0  0  0  0  0
  151.0517  137.4675  158.7293 H   0  0  0  0  0  0  0  0  0  0  0  0
  154.2503  136.9210  159.5012 H   0  0  0  0  0  0  0  0  0  0  0  0
  154.7076  138.5393  160.0300 H   0  0  0  0  0  0  0  0  0  0  0  0
  153.7817  136.3679  163.7915 H   0  0  0  0  0  0  0  0  0  0  0  0
  155.2062  137.1142  165.6734 H   0  0  0  0  0  0  0  0  0  0  0  0
  157.7462  139.9008  165.3938 H   0  0  0  0  0  0  0  0  0  0  0  0
  157.5147  138.3291  166.1634 H   0  0  0  0  0  0  0  0  0  0  0  0
  156.3818  139.6477  166.4887 H   0  0  0  0  0  0  0  0  0  0  0  0
  156.8480  140.2330  163.1871 H   0  0  0  0  0  0  0  0  0  0  0  0
  155.4451  139.5050  161.3187 H   0  0  0  0  0  0  0  0  0  0  0  0
  1  2  1  0  0  0  0
  1 25  1  0  0  0  0
  1 26  1  0  0  0  0
  1 27  1  0  0  0  0
  2  3  1  0  0  0  0
  3  4  1  0  0  0  0
  3 28  1  0  0  0  0
  3 29  1  0  0  0  0
  4 12  1  0  0  0  0
  4  5  2  0  0  0  0
  5  6  1  0  0  0  0
  6 11  2  0  0  0  0
  6  7  1  0  0  0  0
  7  8  2  0  0  0  0
  7 30  1  0  0  0  0
  8  9  1  0  0  0  0
  8 31  1  0  0  0  0
  9 10  2  0  0  0  0
  9 32  1  0  0  0  0
 10 11  1  0  0  0  0
 10 33  1  0  0  0  0
 11 12  1  0  0  0  0
 12 13  1  0  0  0  0
 13 14  1  0  0  0  0
 13 34  1  0  0  0  0
 13 35  1  0  0  0  0
 14 15  1  0  0  0  0
 14 16  1  0  0  0  0
 14 36  1  0  0  0  0
 15 37  1  0  0  0  0
 16 17  1  0  0  0  0
 16 38  1  0  0  0  0
 16 39  1  0  0  0  0
 17 18  1  0  0  0  0
 18 24  1  0  0  0  0
 18 19  2  0  0  0  0
 19 20  1  0  0  0  0
 19 40  1  0  0  0  0
 20 21  2  0  0  0  0
 20 41  1  0  0  0  0
 21 22  1  0  0  0  0
 21 23  1  0  0  0  0
 22 42  1  0  0  0  0
 22 43  1  0  0  0  0
 22 44  1  0  0  0  0
 23 24  2  0  0  0  0
 23 45  1  0  0  0  0
 24 46  1  0  0  0  0
M  END
> <s_m_source_file>
AV-unprocessed.smi

> <i_m_source_file_index>
869

> <i_lp_mmshare_version>
43012

> <i_f3d_flags>
0

> <s_epik_input>
W2NIXTFbY0hdW2NIXVtjSF1jKGMxMiluKGMobjIpW0NIMl1PW0NIM10pW0NIMl1bQ0BIXShbT0hdKVtDSDJdT2MzW2NIXVtjSF1jKFtDSDNdKVtjSF1bY0hdMw==

> <s_epik_cmdline>
J2VwaWtfcHl0aG9uJywgJy1waCcsICc3LjAnLCAnLXRuJywgJzgnLCAnLW1hJywgJzIwMCcsICctbWV0YWxfYmluZGluZycsICctaW1hZScsICc8aW5maWxlLm1hZT4nLCAnLW9tYWUnLCAnPG91dGZpbGUubWFlPic=

> <r_lp_tautomer_probability>
1

> <r_epik_Ionization_Penalty>
0.0446698

> <r_epik_Ionization_Penalty_Charging>
0

> <r_epik_Ionization_Penalty_Neutral>
0.0446698

> <r_epik_State_Penalty>
0.0378721

> <r_epik_Charging_Adjusted_Penalty>
0.0378721

> <i_epik_Tot_Q>
0

> <i_epik_Tot_abs_Q>
0

> <r_epik_Metal_State_Penalty>
3.91074e-05

> <b_epik_Metal_Only>
0

> <s_lp_Force_Field>
OPLS_2005

> <r_lp_Energy>
18.5204

> <b_lp_Chiralities_Consistent>
1

> <s_lp_Variant>
AV-unprocessed.smi:869-2

> <Gold.Version>
5.8.1

> <Gold.Id.Protein>
6NUR|6NUR_protein|mol2

> <Gold.PLP.Fitness>
52.5534

> <Gold.PLP.PLP>
-50.7856

> <Gold.PLP.part.hbond>
-1.6921

> <Gold.PLP.part.metal>
0.0000

> <Gold.PLP.part.buried>
-7.2679

> <Gold.PLP.part.nonpolar>
-42.7795

> <Gold.PLP.part.repulsive>
0.1069

> <Gold.PLP.ligand.clash>
0.0000

> <Gold.PLP.ligand.torsion>
1.6708

> <Gold.PLP.Chemscore.Hbond>
1.6825

> <Gold.PLP.Chemscore.CHOScore>
0.0000

> <Gold.PLP.Chemscore.Metal>
0.0000

> <Gold.Chemscore.Hbonds>
donor molecule, donor type, donor heavy atom, donor atom, acceptor molecule, acceptor atom, score
      P1  H  6896  6909       L1    15  0.55
      P1  H  7989  7998       L1     2  0.91

> <Gold.PLP.Chemscore.Internal.Correction>
0.0620

> <Gold.Rescore>
     Score         DG    S(hbond)    S(metal)    S(lipo)     H(rot)  DE(clash)    DE(int)     intcor
     18.58     -20.77       1.45        0.00     140.96       2.36       0.35       1.84       ----

> <Gold.Chemscore.Fitness>
18.5755

> <Gold.Chemscore.DG>
-20.7663

> <Gold.Chemscore.ZeroCoef>
-5.4800

> <Gold.Chemscore.Hbond>
1.4467

> <Gold.Chemscore.Metal>
0.0000

> <Gold.Chemscore.Lipo>
140.9591

> <Gold.Chemscore.Internal_Hbond>
0.0000

> <Gold.Chemscore.DEClash>
0.3485

> <Gold.Chemscore.DEInternal>
1.8423

> <Gold.Chemscore.Rot>
2.3585

> <Gold.Chemscore.Internal.Correction>
   9.000000E+99

> <Gold.Chemscore.Hbonds>
donor molecule, donor type, donor heavy atom, donor atom, acceptor molecule, acceptor atom, score
      P1  H  6896  6909       L1    15  0.33
      P1  H  7989  7998       L1     2  0.80

> <Gold.Chemscore.Hbond.Weighted>
-4.8319

> <Gold.Chemscore.Metal.Weighted>
-0.0000

> <Gold.Chemscore.Lipo.Weighted>
-16.4922

> <Gold.Chemscore.Internal_Hbond.Weighted>
0.0000

> <Gold.Chemscore.DEClash.Weighted>
0.3485

> <Gold.Chemscore.DEInternal.Weighted>
1.8423

> <Gold.Chemscore.Rot.Weighted>
6.0378

> <Gold.Chemscore.Internal.Correction.Weighted>
   9.000000E+99

> <Gold.Protein.RotatedTorsions>
[ 6907 6896 6895 6894 ] final  114.10 input  -60.11 | X-H torsion
[ 7974 7965 7964 7962 ] final   99.05 input  175.53 | X-H torsion
[ 8008 7997 7996 7995 ] final   17.22 input   59.86 | X-H torsion
[ 10167 10162 10161 10158 ] final  163.62 input  -65.29 | X-H torsion
[ 10718 10713 10712 10709 ] final -109.17 input   66.30 | X-H torsion
[ 10763 10752 10751 10750 ] final   45.22 input  -60.55 | X-H torsion
[ 11005 11000 10999 10996 ] final  -42.32 input  -57.11 | X-H torsion

> <Gold.Protein.ActiveResidues>
 VAL166  LYS551  ARG553  GLY616  TRP617  ASP618  TYR619  PRO620  LYS621  CYS622 
 ASP623  PHE694  ASN695  SER759  ASP760  ASP761  ALA762  ILE779  LEU786  VAL792 
 PHE793  MET794  SER795  GLU796  ALA797  LYS798  CYS799  TRP800  GLU811  SER814 

> <Gold.Protein.RotatedAtoms>
  152.4822  133.8284  159.7089 H   0  0  0  0  0  0  0  0  0  0  0  0  # atno 6907 bound_to 6896
  150.8881  133.7270  159.2919 H   0  0  0  0  0  0  0  0  0  0  0  0  # atno 6908 bound_to 6896
  151.4752  135.1052  159.9815 H   0  0  0  0  0  0  0  0  0  0  0  0  # atno 6909 bound_to 6896
  145.4040  139.2343  143.3284 H   0  0  0  0  0  0  0  0  0  0  0  0  # atno 7974 bound_to 7965
  154.8883  140.2983  155.5385 H   0  0  0  0  0  0  0  0  0  0  0  0  # atno 8008 bound_to 7997
  156.3021  140.2429  156.3829 H   0  0  0  0  0  0  0  0  0  0  0  0  # atno 8009 bound_to 7997
  154.8645  140.0404  157.1675 H   0  0  0  0  0  0  0  0  0  0  0  0  # atno 8010 bound_to 7997
  139.4876  144.4319  151.9060 H   0  0  0  0  0  0  0  0  0  0  0  0  # atno 10167 bound_to 10162
  156.0523  130.5750  150.8063 H   0  0  0  0  0  0  0  0  0  0  0  0  # atno 10718 bound_to 10713
  152.9828  135.6046  154.3401 H   0  0  0  0  0  0  0  0  0  0  0  0  # atno 10763 bound_to 10752
  154.3098  135.2771  155.2573 H   0  0  0  0  0  0  0  0  0  0  0  0  # atno 10764 bound_to 10752
  154.4788  135.5922  153.6430 H   0  0  0  0  0  0  0  0  0  0  0  0  # atno 10765 bound_to 10752
  141.0307  133.6821  156.2578 H   0  0  0  0  0  0  0  0  0  0  0  0  # atno 11005 bound_to 11000
  146.2738  140.4742  142.8804 LP  0  0  0  0  0  0  0  0  0  0  0  0  # atno 17320 bound_to 7965
  144.8354  140.6774  143.6264 LP  0  0  0  0  0  0  0  0  0  0  0  0  # atno 17321 bound_to 7965
  140.3767  144.2788  150.5913 LP  0  0  0  0  0  0  0  0  0  0  0  0  # atno 17342 bound_to 10162
  140.5270  143.2252  151.8298 LP  0  0  0  0  0  0  0  0  0  0  0  0  # atno 17343 bound_to 10162
  157.5461  131.0942  150.9761 LP  0  0  0  0  0  0  0  0  0  0  0  0  # atno 17370 bound_to 10713
  157.0032  130.5608  149.5313 LP  0  0  0  0  0  0  0  0  0  0  0  0  # atno 17371 bound_to 10713
  140.6412  134.5164  157.5569 LP  0  0  0  0  0  0  0  0  0  0  0  0  # atno 17394 bound_to 11000
  139.9206  134.8157  156.1224 LP  0  0  0  0  0  0  0  0  0  0  0  0  # atno 17395 bound_to 11000

$$$$
