AV-unprocessed.smi:3305|AV-procd|sdf|12699|dock8
  -GOLD-   2272019 33D 1   1.00000     0.00000
 Structure written by MMmdl.
 32 33  0  0  0  0  0  0  0  0  1 V2000
  154.2842  140.9905  160.6581 C   0  0  0  0  0  0  0  0  0  0  0  0
  153.4813  142.2455  160.7952 C   0  0  0  0  0  0  0  0  0  0  0  0
  153.0806  142.8519  161.9596 C   0  0  0  0  0  0  0  0  0  0  0  0
  152.1392  144.2867  161.6549 S   0  0  0  0  0  0  0  0  0  0  0  0
  152.3392  144.0138  159.9284 C   0  0  0  0  0  0  0  0  0  0  0  0
  151.7126  144.8783  158.8805 C   0  0  0  0  0  0  0  0  0  0  0  0
  152.0007  144.4191  157.4354 C   0  0  0  0  0  0  0  0  0  0  0  0
  150.9923  143.4983  156.9190 N   0  0  0  0  0  0  0  0  0  0  0  0
  151.0339  142.1625  157.0352 C   0  0  0  0  0  0  0  0  0  0  0  0
  151.9877  141.5578  157.5264 O   0  0  0  0  0  0  0  0  0  0  0  0
  149.7927  141.4009  156.5441 C   0  0  2  0  0  0  0  0  0  0  0  0
  149.9123  139.8950  156.8020 C   0  0  0  0  0  0  0  0  0  0  0  0
  149.9539  139.2618  155.4093 C   0  0  0  0  0  0  0  0  0  0  0  0
  150.3082  140.3267  154.5428 O   0  0  0  0  0  0  0  0  0  0  0  0
  149.6336  141.4791  155.0196 C   0  0  0  0  0  0  0  0  0  0  0  0
  153.0547  142.9203  159.6491 N   0  0  0  0  0  0  0  0  0  0  0  0
  154.5573  140.5823  161.6312 H   0  0  0  0  0  0  0  0  0  0  0  0
  155.2062  141.1715  160.1055 H   0  0  0  0  0  0  0  0  0  0  0  0
  153.7235  140.2230  160.1241 H   0  0  0  0  0  0  0  0  0  0  0  0
  153.2754  142.5390  162.9748 H   0  0  0  0  0  0  0  0  0  0  0  0
  150.6362  144.9080  159.0501 H   0  0  0  0  0  0  0  0  0  0  0  0
  152.0692  145.8997  159.0206 H   0  0  0  0  0  0  0  0  0  0  0  0
  152.0071  145.2885  156.7777 H   0  0  0  0  0  0  0  0  0  0  0  0
  152.9938  143.9725  157.3664 H   0  0  0  0  0  0  0  0  0  0  0  0
  150.1714  143.9113  156.5007 H   0  0  0  0  0  0  0  0  0  0  0  0
  148.9044  141.8081  157.0296 H   0  0  0  0  0  0  0  0  0  0  0  0
  150.8175  139.6422  157.3574 H   0  0  0  0  0  0  0  0  0  0  0  0
  149.0688  139.5158  157.3796 H   0  0  0  0  0  0  0  0  0  0  0  0
  150.6658  138.4390  155.3427 H   0  0  0  0  0  0  0  0  0  0  0  0
  148.9693  138.8843  155.1292 H   0  0  0  0  0  0  0  0  0  0  0  0
  148.5802  141.4287  154.7397 H   0  0  0  0  0  0  0  0  0  0  0  0
  150.0505  142.3870  154.5815 H   0  0  0  0  0  0  0  0  0  0  0  0
  1  2  1  0  0  0  0
  1 17  1  0  0  0  0
  1 18  1  0  0  0  0
  1 19  1  0  0  0  0
  2 16  1  0  0  0  0
  2  3  2  0  0  0  0
  3  4  1  0  0  0  0
  3 20  1  0  0  0  0
  4  5  1  0  0  0  0
  5  6  1  0  0  0  0
  5 16  2  0  0  0  0
  6  7  1  0  0  0  0
  6 21  1  0  0  0  0
  6 22  1  0  0  0  0
  7  8  1  0  0  0  0
  7 23  1  0  0  0  0
  7 24  1  0  0  0  0
  8  9  1  0  0  0  0
  8 25  1  0  0  0  0
  9 10  2  0  0  0  0
  9 11  1  0  0  0  0
 11 15  1  0  0  0  0
 11 12  1  0  0  0  0
 11 26  1  0  0  0  0
 12 13  1  0  0  0  0
 12 27  1  0  0  0  0
 12 28  1  0  0  0  0
 13 14  1  0  0  0  0
 13 29  1  0  0  0  0
 13 30  1  0  0  0  0
 14 15  1  0  0  0  0
 15 31  1  0  0  0  0
 15 32  1  0  0  0  0
M  END
> <s_m_source_file>
AV-unprocessed.smi

> <i_m_source_file_index>
3305

> <i_lp_mmshare_version>
43012

> <i_f3d_flags>
0

> <s_epik_input>
W0NIM11jMVtjSF1zYyhuMSlbQ0gyXVtDSDJdW05IXUMoPU8pW0NAQEhdMltDSDJdW0NIMl1PW0NIMl0y

> <s_epik_cmdline>
J2VwaWtfcHl0aG9uJywgJy1waCcsICc3LjAnLCAnLXRuJywgJzgnLCAnLW1hJywgJzIwMCcsICctbWV0YWxfYmluZGluZycsICctaW1hZScsICc8aW5maWxlLm1hZT4nLCAnLW9tYWUnLCAnPG91dGZpbGUubWFlPic=

> <r_epik_Ionization_Penalty>
0.00102754

> <r_epik_Ionization_Penalty_Charging>
0

> <r_epik_Ionization_Penalty_Neutral>
0.00102754

> <r_epik_State_Penalty>
0.000671034

> <r_epik_Charging_Adjusted_Penalty>
0.000671034

> <i_epik_Tot_Q>
0

> <i_epik_Tot_abs_Q>
0

> <r_epik_Metal_State_Penalty>
-0

> <b_epik_Metal_Only>
0

> <s_lp_Force_Field>
OPLS_2005

> <r_lp_Energy>
8.47785

> <b_lp_Chiralities_Consistent>
1

> <s_lp_Variant>
AV-unprocessed.smi:3305-1

> <Gold.Version>
5.8.1

> <Gold.Id.Protein>
6NUR|6NUR_protein|mol2

> <Gold.PLP.Fitness>
46.0698

> <Gold.PLP.PLP>
-41.0601

> <Gold.PLP.part.hbond>
-2.0000

> <Gold.PLP.part.metal>
0.0000

> <Gold.PLP.part.buried>
-5.1678

> <Gold.PLP.part.nonpolar>
-32.9886

> <Gold.PLP.part.repulsive>
0.1434

> <Gold.PLP.ligand.clash>
0.0000

> <Gold.PLP.ligand.torsion>
0.4551

> <Gold.PLP.Chemscore.Hbond>
1.9600

> <Gold.PLP.Chemscore.CHOScore>
0.0000

> <Gold.PLP.Chemscore.Metal>
0.0000

> <Gold.Chemscore.Hbonds>
donor molecule, donor type, donor heavy atom, donor atom, acceptor molecule, acceptor atom, score
      L1  H     8    25       P1  8028  1.00
      P1  H  7989  7998       L1    14  1.00

> <Gold.PLP.Chemscore.Internal.Correction>
0.0397

> <Gold.Rescore>
     Score         DG    S(hbond)    S(metal)    S(lipo)     H(rot)  DE(clash)    DE(int)     intcor
     19.70     -20.27       1.82        0.00     107.59       1.52       0.10       0.47       ----

> <Gold.Chemscore.Fitness>
19.6976

> <Gold.Chemscore.DG>
-20.2693

> <Gold.Chemscore.ZeroCoef>
-5.4800

> <Gold.Chemscore.Hbond>
1.8211

> <Gold.Chemscore.Metal>
0.0000

> <Gold.Chemscore.Lipo>
107.5862

> <Gold.Chemscore.Internal_Hbond>
0.0000

> <Gold.Chemscore.DEClash>
0.1019

> <Gold.Chemscore.DEInternal>
0.4698

> <Gold.Chemscore.Rot>
1.5159

> <Gold.Chemscore.Internal.Correction>
   9.000000E+99

> <Gold.Chemscore.Hbonds>
donor molecule, donor type, donor heavy atom, donor atom, acceptor molecule, acceptor atom, score
      L1  H     8    25       P1  8028  1.00
      P1  H  7989  7998       L1    14  0.58

> <Gold.Chemscore.Hbond.Weighted>
-6.0824

> <Gold.Chemscore.Metal.Weighted>
-0.0000

> <Gold.Chemscore.Lipo.Weighted>
-12.5876

> <Gold.Chemscore.Internal_Hbond.Weighted>
0.0000

> <Gold.Chemscore.DEClash.Weighted>
0.1019

> <Gold.Chemscore.DEInternal.Weighted>
0.4698

> <Gold.Chemscore.Rot.Weighted>
3.8807

> <Gold.Chemscore.Internal.Correction.Weighted>
   9.000000E+99

> <Gold.Protein.RotatedTorsions>
[ 6907 6896 6895 6894 ] final   57.51 input  -60.11 | X-H torsion
[ 7974 7965 7964 7962 ] final  115.34 input  175.53 | X-H torsion
[ 8008 7997 7996 7995 ] final   64.23 input   59.86 | X-H torsion
[ 10167 10162 10161 10158 ] final  -92.46 input  -65.29 | X-H torsion
[ 10718 10713 10712 10709 ] final  -32.94 input   66.30 | X-H torsion
[ 10763 10752 10751 10750 ] final   -9.73 input  -60.55 | X-H torsion
[ 11005 11000 10999 10996 ] final  -53.44 input  -57.11 | X-H torsion

> <Gold.Protein.ActiveResidues>
 VAL166  LYS551  ARG553  GLY616  TRP617  ASP618  TYR619  PRO620  LYS621  CYS622 
 ASP623  PHE694  ASN695  SER759  ASP760  ASP761  ALA762  ILE779  LEU786  VAL792 
 PHE793  MET794  SER795  GLU796  ALA797  LYS798  CYS799  TRP800  GLU811  SER814 

> <Gold.Protein.RotatedAtoms>
  152.3738  134.6694  160.0166 H   0  0  0  0  0  0  0  0  0  0  0  0  # atno 6907 bound_to 6896
  151.6978  133.3305  159.3267 H   0  0  0  0  0  0  0  0  0  0  0  0  # atno 6908 bound_to 6896
  150.7694  134.6577  159.6367 H   0  0  0  0  0  0  0  0  0  0  0  0  # atno 6909 bound_to 6896
  145.1932  139.2989  143.4357 H   0  0  0  0  0  0  0  0  0  0  0  0  # atno 7974 bound_to 7965
  155.6428  140.3497  155.4721 H   0  0  0  0  0  0  0  0  0  0  0  0  # atno 8008 bound_to 7997
  155.9912  140.1194  157.0660 H   0  0  0  0  0  0  0  0  0  0  0  0  # atno 8009 bound_to 7997
  154.4219  140.1119  156.5554 H   0  0  0  0  0  0  0  0  0  0  0  0  # atno 8010 bound_to 7997
  140.3345  143.2976  151.9904 H   0  0  0  0  0  0  0  0  0  0  0  0  # atno 10167 bound_to 10162
  156.3687  130.4336  149.7563 H   0  0  0  0  0  0  0  0  0  0  0  0  # atno 10718 bound_to 10713
  153.4590  135.7016  153.6062 H   0  0  0  0  0  0  0  0  0  0  0  0  # atno 10763 bound_to 10752
  153.4364  135.3790  155.2202 H   0  0  0  0  0  0  0  0  0  0  0  0  # atno 10764 bound_to 10752
  154.8727  135.3963  154.4013 H   0  0  0  0  0  0  0  0  0  0  0  0  # atno 10765 bound_to 10752
  141.0976  133.6622  156.4172 H   0  0  0  0  0  0  0  0  0  0  0  0  # atno 11005 bound_to 11000
  146.3432  140.2152  142.8590 LP  0  0  0  0  0  0  0  0  0  0  0  0  # atno 17320 bound_to 7965
  145.0020  140.8640  143.5276 LP  0  0  0  0  0  0  0  0  0  0  0  0  # atno 17321 bound_to 7965
  139.4850  144.6207  151.7260 LP  0  0  0  0  0  0  0  0  0  0  0  0  # atno 17342 bound_to 10162
  140.5366  144.0646  150.6072 LP  0  0  0  0  0  0  0  0  0  0  0  0  # atno 17343 bound_to 10162
  156.4698  130.7991  151.3009 LP  0  0  0  0  0  0  0  0  0  0  0  0  # atno 17370 bound_to 10713
  157.7481  131.0039  150.3056 LP  0  0  0  0  0  0  0  0  0  0  0  0  # atno 17371 bound_to 10713
  140.5102  134.6402  157.5281 LP  0  0  0  0  0  0  0  0  0  0  0  0  # atno 17394 bound_to 11000
  139.9817  134.7127  155.9848 LP  0  0  0  0  0  0  0  0  0  0  0  0  # atno 17395 bound_to 11000

$$$$
