AV-unprocessed.smi:229|AV-procd|sdf|1758|dock4
  -GOLD-   2262020283D 1   1.00000     0.00000
 Structure written by MMmdl.
 58 62  0  0  0  0  0  0  0  0  1 V2000
  147.4393  128.2174  151.6225 C   0  0  0  0  0  0  0  0  0  0  0  0
  146.7588  128.8244  152.8557 C   0  0  0  0  0  0  0  0  0  0  0  0
  146.1779  130.2215  152.5914 C   0  0  1  0  0  0  0  0  0  0  0  0
  146.9996  131.3216  153.2827 C   0  0  0  0  0  0  0  0  0  0  0  0
  146.4795  132.6324  152.9198 N   0  0  0  0  0  0  0  0  0  0  0  0
  146.7906  133.7112  153.6843 C   0  0  0  0  0  0  0  0  0  0  0  0
  145.7559  134.4618  154.1450 N   0  0  0  0  0  0  0  0  0  0  0  0
  145.9799  135.5296  154.9156 C   0  0  0  0  0  0  0  0  0  0  0  0
  147.1441  136.0210  155.3414 N   0  0  0  0  0  0  0  0  0  0  0  0
  148.1903  135.2784  154.8804 C   0  0  0  0  0  0  0  0  0  0  0  0
  148.1087  134.1195  154.0544 C   0  0  0  0  0  0  0  0  0  0  0  0
  149.3923  133.6517  153.7878 N   0  0  0  0  0  0  0  0  0  0  0  0
  150.1793  134.4744  154.4246 C   0  0  0  0  0  0  0  0  0  0  0  0
  149.5394  135.4804  155.1095 N   0  0  0  0  0  0  0  0  0  0  0  0
  150.1598  136.5286  155.9006 C   0  0  0  0  0  0  0  0  0  0  0  0
  150.6397  137.7123  155.0369 C   0  0  1  0  0  0  0  0  0  0  0  0
  149.6624  137.9955  154.0529 O   0  0  0  0  0  0  0  0  0  0  0  0
  150.8868  138.9832  155.8710 C   0  0  2  0  0  0  0  0  0  0  0  0
  149.7328  139.3654  156.7985 C   0  0  0  0  0  0  0  0  0  0  0  0
  149.9979  140.8363  157.0230 C   0  0  0  0  0  0  0  0  0  0  0  0
  150.4994  141.2828  155.6518 C   0  0  0  0  0  0  0  0  0  0  0  0
  151.0341  140.1197  155.0236 O   0  0  0  0  0  0  0  0  0  0  0  0
  146.4145  132.8555  151.4791 C   0  0  0  0  0  0  0  0  0  0  0  0
  145.6413  131.7146  150.7770 C   0  0  2  0  0  0  0  0  0  0  0  0
  145.7812  131.8098  149.2607 C   0  0  0  0  0  0  0  0  0  0  0  0
  144.5232  132.5523  148.8372 C   0  0  0  0  0  0  0  0  0  0  0  0
  143.5397  131.9819  149.6796 O   0  0  0  0  0  0  0  0  0  0  0  0
  144.1094  131.8113  150.9726 C   0  0  0  0  0  0  0  0  0  0  0  0
  146.1775  130.4511  151.1813 O   0  0  0  0  0  0  0  0  0  0  0  0
  147.8234  127.2215  151.8431 H   0  0  0  0  0  0  0  0  0  0  0  0
  148.2778  128.8302  151.2906 H   0  0  0  0  0  0  0  0  0  0  0  0
  146.7394  128.1277  150.7912 H   0  0  0  0  0  0  0  0  0  0  0  0
  145.9593  128.1564  153.1775 H   0  0  0  0  0  0  0  0  0  0  0  0
  147.4705  128.8705  153.6808 H   0  0  0  0  0  0  0  0  0  0  0  0
  145.1583  130.2491  152.9769 H   0  0  0  0  0  0  0  0  0  0  0  0
  146.9513  131.1831  154.3634 H   0  0  0  0  0  0  0  0  0  0  0  0
  148.0467  131.2533  152.9852 H   0  0  0  0  0  0  0  0  0  0  0  0
  145.0996  136.0652  155.2393 H   0  0  0  0  0  0  0  0  0  0  0  0
  151.2543  134.3674  154.4140 H   0  0  0  0  0  0  0  0  0  0  0  0
  149.4459  136.8677  156.6526 H   0  0  0  0  0  0  0  0  0  0  0  0
  150.9981  136.0901  156.4433 H   0  0  0  0  0  0  0  0  0  0  0  0
  151.5617  137.4335  154.5248 H   0  0  0  0  0  0  0  0  0  0  0  0
  149.5657  137.2359  153.4994 H   0  0  0  0  0  0  0  0  0  0  0  0
  151.8019  138.8817  156.4573 H   0  0  0  0  0  0  0  0  0  0  0  0
  148.7734  139.2306  156.2967 H   0  0  0  0  0  0  0  0  0  0  0  0
  149.7202  138.7887  157.7239 H   0  0  0  0  0  0  0  0  0  0  0  0
  149.1177  141.3869  157.3563 H   0  0  0  0  0  0  0  0  0  0  0  0
  150.7832  140.9626  157.7695 H   0  0  0  0  0  0  0  0  0  0  0  0
  149.6756  141.6569  155.0433 H   0  0  0  0  0  0  0  0  0  0  0  0
  151.2490  142.0710  155.7270 H   0  0  0  0  0  0  0  0  0  0  0  0
  145.9564  133.8148  151.2358 H   0  0  0  0  0  0  0  0  0  0  0  0
  147.4380  132.8967  151.1037 H   0  0  0  0  0  0  0  0  0  0  0  0
  146.6972  132.3021  148.9327 H   0  0  0  0  0  0  0  0  0  0  0  0
  145.7678  130.8122  148.8186 H   0  0  0  0  0  0  0  0  0  0  0  0
  144.6087  133.6218  149.0362 H   0  0  0  0  0  0  0  0  0  0  0  0
  144.2831  132.4113  147.7832 H   0  0  0  0  0  0  0  0  0  0  0  0
  143.6790  130.9201  151.4281 H   0  0  0  0  0  0  0  0  0  0  0  0
  143.8410  132.6641  151.5975 H   0  0  0  0  0  0  0  0  0  0  0  0
  1  2  1  0  0  0  0
  1 30  1  0  0  0  0
  1 31  1  0  0  0  0
  1 32  1  0  0  0  0
  2  3  1  0  0  0  0
  2 33  1  0  0  0  0
  2 34  1  0  0  0  0
  3 29  1  0  0  0  0
  3  4  1  0  0  0  0
  3 35  1  0  0  0  0
  4  5  1  0  0  0  0
  4 36  1  0  0  0  0
  4 37  1  0  0  0  0
  5  6  1  0  0  0  0
  5 23  1  0  0  0  0
  6 11  1  0  0  0  0
  6  7  2  0  0  0  0
  7  8  1  0  0  0  0
  8  9  2  0  0  0  0
  8 38  1  0  0  0  0
  9 10  1  0  0  0  0
 10 14  1  0  0  0  0
 10 11  2  0  0  0  0
 11 12  1  0  0  0  0
 12 13  2  0  0  0  0
 13 14  1  0  0  0  0
 13 39  1  0  0  0  0
 14 15  1  0  0  0  0
 15 16  1  0  0  0  0
 15 40  1  0  0  0  0
 15 41  1  0  0  0  0
 16 17  1  0  0  0  0
 16 18  1  0  0  0  0
 16 42  1  0  0  0  0
 17 43  1  0  0  0  0
 18 22  1  0  0  0  0
 18 19  1  0  0  0  0
 18 44  1  0  0  0  0
 19 20  1  0  0  0  0
 19 45  1  0  0  0  0
 19 46  1  0  0  0  0
 20 21  1  0  0  0  0
 20 47  1  0  0  0  0
 20 48  1  0  0  0  0
 21 22  1  0  0  0  0
 21 49  1  0  0  0  0
 21 50  1  0  0  0  0
 23 24  1  0  0  0  0
 23 51  1  0  0  0  0
 23 52  1  0  0  0  0
 24 28  1  0  0  0  0
 24 25  1  0  0  0  0
 24 29  1  0  0  0  0
 25 26  1  0  0  0  0
 25 53  1  0  0  0  0
 25 54  1  0  0  0  0
 26 27  1  0  0  0  0
 26 55  1  0  0  0  0
 26 56  1  0  0  0  0
 27 28  1  0  0  0  0
 28 57  1  0  0  0  0
 28 58  1  0  0  0  0
M  END
> <s_m_source_file>
AV-unprocessed.smi

> <i_m_source_file_index>
229

> <i_lp_mmshare_version>
43012

> <i_f3d_flags>
0

> <s_epik_input>
W0NIMl0xT1tDSDJdW0NIMl1bQ0BdMTJbQ0gyXU4oW0NIMl1bQ0BIXShPMilbQ0gyXVtDSDNdKWMobltjSF1uMyljKGMzNCluW2NIXW40W0NIMl1bQ0BIXShbT0hdKVtDQEBIXTVbQ0gyXVtDSDJdW0NIMl1PNQ==

> <s_epik_cmdline>
J2VwaWtfcHl0aG9uJywgJy1waCcsICc3LjAnLCAnLXRuJywgJzgnLCAnLW1hJywgJzIwMCcsICctbWV0YWxfYmluZGluZycsICctaW1hZScsICc8aW5maWxlLm1hZT4nLCAnLW9tYWUnLCAnPG91dGZpbGUubWFlPic=

> <r_lp_tautomer_probability>
1

> <r_epik_Ionization_Penalty>
0.00318402

> <r_epik_Ionization_Penalty_Charging>
0

> <r_epik_Ionization_Penalty_Neutral>
0.00318402

> <r_epik_State_Penalty>
0.00215642

> <r_epik_Charging_Adjusted_Penalty>
0.00215642

> <i_epik_Tot_Q>
0

> <i_epik_Tot_abs_Q>
0

> <r_epik_Metal_State_Penalty>
-0

> <b_epik_Metal_Only>
0

> <s_lp_Force_Field>
OPLS_2005

> <r_lp_Energy>
55.1094

> <b_lp_Chiralities_Consistent>
1

> <s_lp_Variant>
AV-unprocessed.smi:229-12

> <Gold.Version>
5.8.1

> <Gold.Id.Protein>
6NUR|6NUR_protein|mol2

> <Gold.PLP.Fitness>
47.7254

> <Gold.PLP.PLP>
-41.7119

> <Gold.PLP.part.hbond>
-3.0000

> <Gold.PLP.part.metal>
0.0000

> <Gold.PLP.part.buried>
-6.0484

> <Gold.PLP.part.nonpolar>
-33.7459

> <Gold.PLP.part.repulsive>
1.9240

> <Gold.PLP.ligand.clash>
0.0000

> <Gold.PLP.ligand.torsion>
1.7192

> <Gold.PLP.Chemscore.Hbond>
2.9833

> <Gold.PLP.Chemscore.CHOScore>
0.0000

> <Gold.PLP.Chemscore.Metal>
0.0000

> <Gold.Chemscore.Hbonds>
donor molecule, donor type, donor heavy atom, donor atom, acceptor molecule, acceptor atom, score
      L1  H    17    43       P1  7948  1.00
      P1  H  7989  7998       L1    22  0.95
      P1  H 10785 10796       L1    27  0.84

> <Gold.PLP.Chemscore.Internal.Correction>
0.5019

> <Gold.Rescore>
     Score         DG    S(hbond)    S(metal)    S(lipo)     H(rot)  DE(clash)    DE(int)     intcor
     17.16     -20.27       2.29        0.00     114.89       2.46       1.48       1.64       ----

> <Gold.Chemscore.Fitness>
17.1595

> <Gold.Chemscore.DG>
-20.2721

> <Gold.Chemscore.ZeroCoef>
-5.4800

> <Gold.Chemscore.Hbond>
2.2890

> <Gold.Chemscore.Metal>
0.0000

> <Gold.Chemscore.Lipo>
114.8909

> <Gold.Chemscore.Internal_Hbond>
0.0000

> <Gold.Chemscore.DEClash>
1.4769

> <Gold.Chemscore.DEInternal>
1.6357

> <Gold.Chemscore.Rot>
2.4591

> <Gold.Chemscore.Internal.Correction>
   9.000000E+99

> <Gold.Chemscore.Hbonds>
donor molecule, donor type, donor heavy atom, donor atom, acceptor molecule, acceptor atom, score
      L1  H    17    43       P1  7948  0.81
      P1  H  7989  7998       L1    22  0.21
      P1  H 10785 10796       L1    27  0.18

> <Gold.Chemscore.Hbond.Weighted>
-7.6452

> <Gold.Chemscore.Metal.Weighted>
-0.0000

> <Gold.Chemscore.Lipo.Weighted>
-13.4422

> <Gold.Chemscore.Internal_Hbond.Weighted>
0.0000

> <Gold.Chemscore.DEClash.Weighted>
1.4769

> <Gold.Chemscore.DEInternal.Weighted>
1.6357

> <Gold.Chemscore.Rot.Weighted>
6.2953

> <Gold.Chemscore.Internal.Correction.Weighted>
   9.000000E+99

> <Gold.Protein.RotatedTorsions>
[ 6907 6896 6895 6894 ] final  131.14 input  -60.11 | X-H torsion
[ 7974 7965 7964 7962 ] final -120.03 input  175.53 | X-H torsion
[ 8008 7997 7996 7995 ] final  177.29 input   59.86 | X-H torsion
[ 10167 10162 10161 10158 ] final  159.14 input  -65.29 | X-H torsion
[ 10718 10713 10712 10709 ] final  -33.61 input   66.30 | X-H torsion
[ 10763 10752 10751 10750 ] final  113.92 input  -60.55 | X-H torsion
[ 11005 11000 10999 10996 ] final  146.54 input  -57.11 | X-H torsion

> <Gold.Protein.ActiveResidues>
 VAL166  LYS551  ARG553  GLY616  TRP617  ASP618  TYR619  PRO620  LYS621  CYS622 
 ASP623  PHE694  ASN695  SER759  ASP760  ASP761  ALA762  ILE779  LEU786  VAL792 
 PHE793  MET794  SER795  GLU796  ALA797  LYS798  CYS799  TRP800  GLU811  SER814 

> <Gold.Protein.RotatedAtoms>
  152.3456  133.6118  159.5907 H   0  0  0  0  0  0  0  0  0  0  0  0  # atno 6907 bound_to 6896
  150.7505  133.9654  159.3537 H   0  0  0  0  0  0  0  0  0  0  0  0  # atno 6908 bound_to 6896
  151.7512  135.0833  160.0382 H   0  0  0  0  0  0  0  0  0  0  0  0  # atno 6909 bound_to 6896
  145.0560  140.8254  143.4181 H   0  0  0  0  0  0  0  0  0  0  0  0  # atno 7974 bound_to 7965
  156.0673  140.1362  156.9870 H   0  0  0  0  0  0  0  0  0  0  0  0  # atno 8008 bound_to 7997
  154.4513  140.0979  156.6678 H   0  0  0  0  0  0  0  0  0  0  0  0  # atno 8009 bound_to 7997
  155.5283  140.3458  155.4423 H   0  0  0  0  0  0  0  0  0  0  0  0  # atno 8010 bound_to 7997
  139.4830  144.4758  151.8514 H   0  0  0  0  0  0  0  0  0  0  0  0  # atno 10167 bound_to 10162
  156.3605  130.4323  149.7627 H   0  0  0  0  0  0  0  0  0  0  0  0  # atno 10718 bound_to 10713
  153.4995  135.3641  155.2533 H   0  0  0  0  0  0  0  0  0  0  0  0  # atno 10763 bound_to 10752
  154.8748  135.3996  154.3494 H   0  0  0  0  0  0  0  0  0  0  0  0  # atno 10764 bound_to 10752
  153.4128  135.7078  153.6413 H   0  0  0  0  0  0  0  0  0  0  0  0  # atno 10765 bound_to 10752
  140.0802  134.9102  157.1487 H   0  0  0  0  0  0  0  0  0  0  0  0  # atno 11005 bound_to 11000
  145.1468  139.2538  143.5461 LP  0  0  0  0  0  0  0  0  0  0  0  0  # atno 17320 bound_to 7965
  146.3521  140.1160  142.8602 LP  0  0  0  0  0  0  0  0  0  0  0  0  # atno 17321 bound_to 7965
  140.4230  144.2218  150.5887 LP  0  0  0  0  0  0  0  0  0  0  0  0  # atno 17342 bound_to 10162
  140.4855  143.2364  151.8894 LP  0  0  0  0  0  0  0  0  0  0  0  0  # atno 17343 bound_to 10162
  156.4793  130.8033  151.3048 LP  0  0  0  0  0  0  0  0  0  0  0  0  # atno 17370 bound_to 10713
  157.7473  131.0011  150.2950 LP  0  0  0  0  0  0  0  0  0  0  0  0  # atno 17371 bound_to 10713
  140.3499  134.2610  155.7200 LP  0  0  0  0  0  0  0  0  0  0  0  0  # atno 17394 bound_to 11000
  141.2044  133.7888  157.0290 LP  0  0  0  0  0  0  0  0  0  0  0  0  # atno 17395 bound_to 11000

$$$$
