AV-unprocessed.smi:707|AV-procd|sdf|3455|dock8
  -GOLD-   22720 0443D 1   1.00000     0.00000
 Structure written by MMmdl.
 44 45  0  0  0  0  0  0  0  0  1 V2000
  145.5085  136.7462  154.0460 C   0  0  0  0  0  0  0  0  0  0  0  0
  146.0217  137.5255  152.8788 C   0  0  0  0  0  0  0  0  0  0  0  0
  145.9022  137.1260  151.6072 N   0  0  0  0  0  0  0  0  0  0  0  0
  146.4962  138.1165  150.8498 N   0  0  0  0  0  0  0  0  0  0  0  0
  146.9151  139.0143  151.7408 C   0  0  0  0  0  0  0  0  0  0  0  0
  146.6538  138.7082  153.0208 N   0  0  0  0  0  0  0  0  0  0  0  0
  146.9738  139.4672  154.2155 C   0  0  0  0  0  0  0  0  0  0  0  0
  148.0208  138.7489  155.0772 C   0  0  0  0  0  0  0  0  0  0  0  0
  148.9297  139.7106  155.6841 N   0  0  0  0  0  0  0  0  0  0  0  0
  150.1560  139.9927  155.2209 C   0  0  0  0  0  0  0  0  0  0  0  0
  150.6393  139.4635  154.2204 O   0  0  0  0  0  0  0  0  0  0  0  0
  150.9539  141.0429  155.9916 C   0  0  0  0  0  0  0  0  0  0  0  0
  151.1685  140.5792  157.3183 O   0  0  0  0  0  0  0  0  0  0  0  0
  152.1133  141.3392  158.0608 C   0  0  2  0  0  0  0  0  0  0  0  0
  152.2515  140.7973  159.4982 C   0  0  0  0  0  0  0  0  0  0  0  0
  153.1704  141.6924  160.3440 C   0  0  0  0  0  0  0  0  0  0  0  0
  152.6828  143.1498  160.3490 C   0  0  0  0  0  0  0  0  0  0  0  0
  152.5428  143.7029  158.9178 C   0  0  2  0  0  0  0  0  0  0  0  0
  152.0497  145.1570  158.9236 C   0  0  0  0  0  0  0  0  0  0  0  0
  151.6190  142.7966  158.0805 C   0  0  0  0  0  0  0  0  0  0  0  0
  144.9806  135.8546  153.7067 H   0  0  0  0  0  0  0  0  0  0  0  0
  144.8183  137.3528  154.6323 H   0  0  0  0  0  0  0  0  0  0  0  0
  146.3363  136.4365  154.6840 H   0  0  0  0  0  0  0  0  0  0  0  0
  147.4260  139.9211  151.4518 H   0  0  0  0  0  0  0  0  0  0  0  0
  147.3291  140.4552  153.9203 H   0  0  0  0  0  0  0  0  0  0  0  0
  146.0546  139.6198  154.7832 H   0  0  0  0  0  0  0  0  0  0  0  0
  147.5310  138.1733  155.8642 H   0  0  0  0  0  0  0  0  0  0  0  0
  148.5884  138.0439  154.4678 H   0  0  0  0  0  0  0  0  0  0  0  0
  148.6116  140.1902  156.5140 H   0  0  0  0  0  0  0  0  0  0  0  0
  151.8992  141.2253  155.4800 H   0  0  0  0  0  0  0  0  0  0  0  0
  150.3925  141.9783  155.9996 H   0  0  0  0  0  0  0  0  0  0  0  0
  153.0836  141.3146  157.5611 H   0  0  0  0  0  0  0  0  0  0  0  0
  151.2672  140.7411  159.9649 H   0  0  0  0  0  0  0  0  0  0  0  0
  152.6489  139.7828  159.4929 H   0  0  0  0  0  0  0  0  0  0  0  0
  153.2193  141.3141  161.3655 H   0  0  0  0  0  0  0  0  0  0  0  0
  154.1861  141.6484  159.9490 H   0  0  0  0  0  0  0  0  0  0  0  0
  151.7228  143.2093  160.8637 H   0  0  0  0  0  0  0  0  0  0  0  0
  153.3782  143.7650  160.9210 H   0  0  0  0  0  0  0  0  0  0  0  0
  153.5311  143.6941  158.4555 H   0  0  0  0  0  0  0  0  0  0  0  0
  151.0589  145.2383  159.3716 H   0  0  0  0  0  0  0  0  0  0  0  0
  151.9910  145.5552  157.9103 H   0  0  0  0  0  0  0  0  0  0  0  0
  152.7251  145.7986  159.4904 H   0  0  0  0  0  0  0  0  0  0  0  0
  151.5568  143.1734  157.0590 H   0  0  0  0  0  0  0  0  0  0  0  0
  150.6059  142.8330  158.4843 H   0  0  0  0  0  0  0  0  0  0  0  0
  1  2  1  0  0  0  0
  1 21  1  0  0  0  0
  1 22  1  0  0  0  0
  1 23  1  0  0  0  0
  2  6  1  0  0  0  0
  2  3  2  0  0  0  0
  3  4  1  0  0  0  0
  4  5  2  0  0  0  0
  5  6  1  0  0  0  0
  5 24  1  0  0  0  0
  6  7  1  0  0  0  0
  7  8  1  0  0  0  0
  7 25  1  0  0  0  0
  7 26  1  0  0  0  0
  8  9  1  0  0  0  0
  8 27  1  0  0  0  0
  8 28  1  0  0  0  0
  9 10  1  0  0  0  0
  9 29  1  0  0  0  0
 10 11  2  0  0  0  0
 10 12  1  0  0  0  0
 12 13  1  0  0  0  0
 12 30  1  0  0  0  0
 12 31  1  0  0  0  0
 13 14  1  0  0  0  0
 14 20  1  0  0  0  0
 14 15  1  0  0  0  0
 14 32  1  0  0  0  0
 15 16  1  0  0  0  0
 15 33  1  0  0  0  0
 15 34  1  0  0  0  0
 16 17  1  0  0  0  0
 16 35  1  0  0  0  0
 16 36  1  0  0  0  0
 17 18  1  0  0  0  0
 17 37  1  0  0  0  0
 17 38  1  0  0  0  0
 18 19  1  0  0  0  0
 18 20  1  0  0  0  0
 18 39  1  0  0  0  0
 19 40  1  0  0  0  0
 19 41  1  0  0  0  0
 19 42  1  0  0  0  0
 20 43  1  0  0  0  0
 20 44  1  0  0  0  0
M  END
> <s_m_source_file>
AV-unprocessed.smi

> <i_m_source_file_index>
707

> <i_lp_mmshare_version>
43012

> <i_f3d_flags>
0

> <s_epik_input>
W0NIM11jMW5uW2NIXW4xW0NIMl1bQ0gyXVtOSF1DKD1PKVtDSDJdT1tDQEBIXTJbQ0gyXVtDSDJdW0NIMl1bQ0BASF0oW0NIM10pW0NIMl0y

> <s_epik_cmdline>
J2VwaWtfcHl0aG9uJywgJy1waCcsICc3LjAnLCAnLXRuJywgJzgnLCAnLW1hJywgJzIwMCcsICctbWV0YWxfYmluZGluZycsICctaW1hZScsICc8aW5maWxlLm1hZT4nLCAnLW9tYWUnLCAnPG91dGZpbGUubWFlPic=

> <r_lp_tautomer_probability>
1

> <r_epik_Ionization_Penalty>
0.000271783

> <r_epik_Ionization_Penalty_Charging>
0

> <r_epik_Ionization_Penalty_Neutral>
0.000271783

> <r_epik_State_Penalty>
-0

> <r_epik_Charging_Adjusted_Penalty>
0

> <i_epik_Tot_Q>
0

> <i_epik_Tot_abs_Q>
0

> <r_epik_Metal_State_Penalty>
-0

> <b_epik_Metal_Only>
0

> <s_lp_Force_Field>
OPLS_2005

> <r_lp_Energy>
13.3138

> <b_lp_Chiralities_Consistent>
1

> <s_lp_Variant>
AV-unprocessed.smi:707-3

> <Gold.Version>
5.8.1

> <Gold.Id.Protein>
6NUR|6NUR_protein|mol2

> <Gold.PLP.Fitness>
45.1096

> <Gold.PLP.PLP>
-37.5612

> <Gold.PLP.part.hbond>
-2.0000

> <Gold.PLP.part.metal>
0.0000

> <Gold.PLP.part.buried>
-5.0079

> <Gold.PLP.part.nonpolar>
-34.4622

> <Gold.PLP.part.repulsive>
2.9760

> <Gold.PLP.ligand.clash>
0.0000

> <Gold.PLP.ligand.torsion>
0.4878

> <Gold.PLP.Chemscore.Hbond>
1.9500

> <Gold.PLP.Chemscore.CHOScore>
0.8804

> <Gold.PLP.Chemscore.Metal>
0.0000

> <Gold.Chemscore.Hbonds>
donor molecule, donor type, donor heavy atom, donor atom, acceptor molecule, acceptor atom, score
      P1  H  7954  7966       L1     4  0.95
      P1  H  7989  7998       L1    11  1.00
      L1  C     5    24       P1  7957  0.87

> <Gold.PLP.Chemscore.Internal.Correction>
0.0326

> <Gold.Rescore>
     Score         DG    S(hbond)    S(metal)    S(lipo)     H(rot)  DE(clash)    DE(int)     intcor
     13.02     -15.22       1.60        0.00      90.38       2.42       1.70       0.49       ----

> <Gold.Chemscore.Fitness>
13.0245

> <Gold.Chemscore.DG>
-15.2216

> <Gold.Chemscore.ZeroCoef>
-5.4800

> <Gold.Chemscore.Hbond>
1.6049

> <Gold.Chemscore.Metal>
0.0000

> <Gold.Chemscore.Lipo>
90.3769

> <Gold.Chemscore.Internal_Hbond>
0.0000

> <Gold.Chemscore.DEClash>
1.7049

> <Gold.Chemscore.DEInternal>
0.4922

> <Gold.Chemscore.Rot>
2.4191

> <Gold.Chemscore.Internal.Correction>
   9.000000E+99

> <Gold.Chemscore.Hbonds>
donor molecule, donor type, donor heavy atom, donor atom, acceptor molecule, acceptor atom, score
      P1  H  7954  7966       L1     4  0.21
      P1  H  7989  7998       L1    11  0.35

> <Gold.Chemscore.Hbond.Weighted>
-5.3604

> <Gold.Chemscore.Metal.Weighted>
-0.0000

> <Gold.Chemscore.Lipo.Weighted>
-10.5741

> <Gold.Chemscore.Internal_Hbond.Weighted>
0.0000

> <Gold.Chemscore.DEClash.Weighted>
1.7049

> <Gold.Chemscore.DEInternal.Weighted>
0.4922

> <Gold.Chemscore.Rot.Weighted>
6.1929

> <Gold.Chemscore.Internal.Correction.Weighted>
   9.000000E+99

> <Gold.Protein.RotatedTorsions>
[ 6907 6896 6895 6894 ] final -120.90 input  -60.11 | X-H torsion
[ 7974 7965 7964 7962 ] final   57.42 input  175.53 | X-H torsion
[ 8008 7997 7996 7995 ] final  -47.28 input   59.86 | X-H torsion
[ 10167 10162 10161 10158 ] final  -56.60 input  -65.29 | X-H torsion
[ 10718 10713 10712 10709 ] final   60.77 input   66.30 | X-H torsion
[ 10763 10752 10751 10750 ] final  -35.37 input  -60.55 | X-H torsion
[ 11005 11000 10999 10996 ] final  120.58 input  -57.11 | X-H torsion

> <Gold.Protein.ActiveResidues>
 VAL166  LYS551  ARG553  GLY616  TRP617  ASP618  TYR619  PRO620  LYS621  CYS622 
 ASP623  PHE694  ASN695  SER759  ASP760  ASP761  ALA762  ILE779  LEU786  VAL792 
 PHE793  MET794  SER795  GLU796  ALA797  LYS798  CYS799  TRP800  GLU811  SER814 

> <Gold.Protein.RotatedAtoms>
  150.8435  133.7899  159.3051 H   0  0  0  0  0  0  0  0  0  0  0  0  # atno 6907 bound_to 6896
  151.5593  135.1064  159.9978 H   0  0  0  0  0  0  0  0  0  0  0  0  # atno 6908 bound_to 6896
  152.4494  133.7556  159.6774 H   0  0  0  0  0  0  0  0  0  0  0  0  # atno 6909 bound_to 6896
  145.9292  139.3793  143.0431 H   0  0  0  0  0  0  0  0  0  0  0  0  # atno 7974 bound_to 7965
  154.4015  140.1350  156.4149 H   0  0  0  0  0  0  0  0  0  0  0  0  # atno 8008 bound_to 7997
  155.7698  140.3484  155.5221 H   0  0  0  0  0  0  0  0  0  0  0  0  # atno 8009 bound_to 7997
  155.8778  140.0982  157.1497 H   0  0  0  0  0  0  0  0  0  0  0  0  # atno 8010 bound_to 7997
  140.6307  143.2458  151.5247 H   0  0  0  0  0  0  0  0  0  0  0  0  # atno 10167 bound_to 10162
  157.5778  130.8957  149.9377 H   0  0  0  0  0  0  0  0  0  0  0  0  # atno 10718 bound_to 10713
  153.8622  135.6839  153.4782 H   0  0  0  0  0  0  0  0  0  0  0  0  # atno 10763 bound_to 10752
  153.1335  135.4687  154.9384 H   0  0  0  0  0  0  0  0  0  0  0  0  # atno 10764 bound_to 10752
  154.7753  135.3251  154.8054 H   0  0  0  0  0  0  0  0  0  0  0  0  # atno 10765 bound_to 10752
  139.9191  134.9635  156.7828 H   0  0  0  0  0  0  0  0  0  0  0  0  # atno 11005 bound_to 11000
  145.8448  140.9561  143.0780 LP  0  0  0  0  0  0  0  0  0  0  0  0  # atno 17320 bound_to 7965
  144.6762  140.0331  143.7482 LP  0  0  0  0  0  0  0  0  0  0  0  0  # atno 17321 bound_to 7965
  139.5522  144.2367  152.1550 LP  0  0  0  0  0  0  0  0  0  0  0  0  # atno 17342 bound_to 10162
  140.1610  144.5026  150.6633 LP  0  0  0  0  0  0  0  0  0  0  0  0  # atno 17343 bound_to 10162
  156.0823  130.3672  150.0556 LP  0  0  0  0  0  0  0  0  0  0  0  0  # atno 17370 bound_to 10713
  156.8700  130.9521  151.3610 LP  0  0  0  0  0  0  0  0  0  0  0  0  # atno 17371 bound_to 10713
  140.6530  133.9714  155.7765 LP  0  0  0  0  0  0  0  0  0  0  0  0  # atno 17394 bound_to 11000
  141.0695  134.0227  157.3546 LP  0  0  0  0  0  0  0  0  0  0  0  0  # atno 17395 bound_to 11000

$$$$
