AV-unprocessed.smi:278|AV-procd|sdf|2088|dock1
  -GOLD-   2262021363D 1   1.00000     0.00000
 Structure written by MMmdl.
 50 54  0  0  0  0  0  0  0  0  1 V2000
  149.0145  134.1881  158.0433 O   0  0  0  0  0  0  0  0  0  0  0  0
  148.8986  132.9507  157.2559 S   0  0  0  0  0  0  0  0  0  0  0  0
  149.1571  131.6408  157.8726 O   0  0  0  0  0  0  0  0  0  0  0  0
  147.2550  132.9121  156.4408 C   0  0  0  0  0  0  0  0  0  0  0  0
  147.5235  132.7537  154.9381 C   0  0  0  0  0  0  0  0  0  0  0  0
  148.8842  133.3893  154.5981 C   0  0  1  0  0  0  0  0  0  0  0  0
  148.8640  134.9214  154.5715 C   0  0  0  0  0  0  0  0  0  0  0  0
  150.2055  135.3330  154.9636 N   0  0  0  0  0  0  0  0  0  0  0  0
  150.4805  136.6337  155.2468 C   0  0  0  0  0  0  0  0  0  0  0  0
  151.6363  137.1777  154.7796 N   0  0  0  0  0  0  0  0  0  0  0  0
  151.9345  138.4568  155.0235 C   0  0  0  0  0  0  0  0  0  0  0  0
  151.2327  139.3600  155.7090 N   0  0  0  0  0  0  0  0  0  0  0  0
  150.0811  138.8196  156.1988 C   0  0  0  0  0  0  0  0  0  0  0  0
  149.6325  137.4788  156.0229 C   0  0  0  0  0  0  0  0  0  0  0  0
  148.4208  137.3033  156.6844 N   0  0  0  0  0  0  0  0  0  0  0  0
  148.1624  138.4716  157.2046 C   0  0  0  0  0  0  0  0  0  0  0  0
  149.1042  139.4422  156.9543 N   0  0  0  0  0  0  0  0  0  0  0  0
  149.0697  140.8256  157.3943 C   0  0  0  0  0  0  0  0  0  0  0  0
  150.3754  141.5760  157.0640 C   0  0  1  0  0  0  0  0  0  0  0  0
  150.2638  142.1537  155.7769 O   0  0  0  0  0  0  0  0  0  0  0  0
  150.6892  142.6850  158.0849 C   0  0  2  0  0  0  0  0  0  0  0  0
  151.6554  143.7573  157.5754 C   0  0  0  0  0  0  0  0  0  0  0  0
  152.2396  144.2825  158.8660 C   0  0  0  0  0  0  0  0  0  0  0  0
  152.3763  143.0021  159.6830 C   0  0  0  0  0  0  0  0  0  0  0  0
  151.3365  142.1375  159.2324 O   0  0  0  0  0  0  0  0  0  0  0  0
  150.8620  134.2672  155.7107 C   0  0  0  0  0  0  0  0  0  0  0  0
  149.8901  133.0796  155.7071 C   0  0  1  0  0  0  0  0  0  0  0  0
  149.2592  133.0224  153.6416 H   0  0  0  0  0  0  0  0  0  0  0  0
  150.3963  132.1267  155.5505 H   0  0  0  0  0  0  0  0  0  0  0  0
  146.6487  132.1051  156.8527 H   0  0  0  0  0  0  0  0  0  0  0  0
  146.7559  133.8590  156.6478 H   0  0  0  0  0  0  0  0  0  0  0  0
  147.5715  131.6896  154.7038 H   0  0  0  0  0  0  0  0  0  0  0  0
  146.7156  133.1724  154.3373 H   0  0  0  0  0  0  0  0  0  0  0  0
  148.6052  135.3002  153.5820 H   0  0  0  0  0  0  0  0  0  0  0  0
  148.1400  135.3151  155.2864 H   0  0  0  0  0  0  0  0  0  0  0  0
  152.8674  138.8072  154.6070 H   0  0  0  0  0  0  0  0  0  0  0  0
  147.2691  138.6603  157.7823 H   0  0  0  0  0  0  0  0  0  0  0  0
  148.2158  141.3200  156.9290 H   0  0  0  0  0  0  0  0  0  0  0  0
  148.8874  140.8340  158.4696 H   0  0  0  0  0  0  0  0  0  0  0  0
  151.2035  140.8662  157.0422 H   0  0  0  0  0  0  0  0  0  0  0  0
  149.9163  143.0275  155.8717 H   0  0  0  0  0  0  0  0  0  0  0  0
  149.7679  143.1640  158.4211 H   0  0  0  0  0  0  0  0  0  0  0  0
  152.4422  143.3105  156.9654 H   0  0  0  0  0  0  0  0  0  0  0  0
  151.1618  144.5294  156.9846 H   0  0  0  0  0  0  0  0  0  0  0  0
  153.1861  144.8063  158.7295 H   0  0  0  0  0  0  0  0  0  0  0  0
  151.5355  144.9636  159.3458 H   0  0  0  0  0  0  0  0  0  0  0  0
  153.3349  142.5226  159.4812 H   0  0  0  0  0  0  0  0  0  0  0  0
  152.3075  143.1836  160.7558 H   0  0  0  0  0  0  0  0  0  0  0  0
  151.7817  133.9998  155.1897 H   0  0  0  0  0  0  0  0  0  0  0  0
  151.1302  134.5675  156.7235 H   0  0  0  0  0  0  0  0  0  0  0  0
  1  2  2  0  0  0  0
  2 27  1  0  0  0  0
  2  3  2  0  0  0  0
  2  4  1  0  0  0  0
  4  5  1  0  0  0  0
  4 30  1  0  0  0  0
  4 31  1  0  0  0  0
  5  6  1  0  0  0  0
  5 32  1  0  0  0  0
  5 33  1  0  0  0  0
  6 28  1  0  0  0  0
  6 27  1  0  0  0  0
  6  7  1  0  0  0  0
  7  8  1  0  0  0  0
  7 34  1  0  0  0  0
  7 35  1  0  0  0  0
  8  9  1  0  0  0  0
  8 26  1  0  0  0  0
  9 14  1  0  0  0  0
  9 10  2  0  0  0  0
 10 11  1  0  0  0  0
 11 12  2  0  0  0  0
 11 36  1  0  0  0  0
 12 13  1  0  0  0  0
 13 17  1  0  0  0  0
 13 14  2  0  0  0  0
 14 15  1  0  0  0  0
 15 16  2  0  0  0  0
 16 17  1  0  0  0  0
 16 37  1  0  0  0  0
 17 18  1  0  0  0  0
 18 19  1  0  0  0  0
 18 38  1  0  0  0  0
 18 39  1  0  0  0  0
 19 20  1  0  0  0  0
 19 21  1  0  0  0  0
 19 40  1  0  0  0  0
 20 41  1  0  0  0  0
 21 25  1  0  0  0  0
 21 22  1  0  0  0  0
 21 42  1  0  0  0  0
 22 23  1  0  0  0  0
 22 43  1  0  0  0  0
 22 44  1  0  0  0  0
 23 24  1  0  0  0  0
 23 45  1  0  0  0  0
 23 46  1  0  0  0  0
 24 25  1  0  0  0  0
 24 47  1  0  0  0  0
 24 48  1  0  0  0  0
 26 27  1  0  0  0  0
 26 49  1  0  0  0  0
 26 50  1  0  0  0  0
 27 29  1  0  0  0  0
M  END
> <s_m_source_file>
AV-unprocessed.smi

> <i_m_source_file_index>
278

> <i_lp_mmshare_version>
43012

> <i_f3d_flags>
0

> <s_epik_input>
W0NIMl0xW0NIMl1TKD1PKSg9TylbQ0BASF0oW0NAQEhdMTIpW0NIMl1OKFtDSDJdMiljKG5bY0hdbjMpYyhjMzQpbltjSF1uNFtDSDJdW0NASF0oW09IXSlbQ0BASF01W0NIMl1bQ0gyXVtDSDJdTzU=

> <s_epik_cmdline>
J2VwaWtfcHl0aG9uJywgJy1waCcsICc3LjAnLCAnLXRuJywgJzgnLCAnLW1hJywgJzIwMCcsICctbWV0YWxfYmluZGluZycsICctaW1hZScsICc8aW5maWxlLm1hZT4nLCAnLW9tYWUnLCAnPG91dGZpbGUubWFlPic=

> <r_lp_tautomer_probability>
1

> <r_epik_Ionization_Penalty>
0.000636766

> <r_epik_Ionization_Penalty_Charging>
0

> <r_epik_Ionization_Penalty_Neutral>
0.000636766

> <r_epik_State_Penalty>
0.000329976

> <r_epik_Charging_Adjusted_Penalty>
0.000329976

> <i_epik_Tot_Q>
0

> <i_epik_Tot_abs_Q>
0

> <r_epik_Metal_State_Penalty>
-0

> <b_epik_Metal_Only>
0

> <s_lp_Force_Field>
OPLS_2005

> <r_lp_Energy>
48.1975

> <b_lp_Chiralities_Consistent>
1

> <s_lp_Variant>
AV-unprocessed.smi:278-2

> <Gold.Version>
5.8.1

> <Gold.Id.Protein>
6NUR|6NUR_protein|mol2

> <Gold.PLP.Fitness>
41.6907

> <Gold.PLP.PLP>
-36.7383

> <Gold.PLP.part.hbond>
-3.0000

> <Gold.PLP.part.metal>
0.0000

> <Gold.PLP.part.buried>
-5.2721

> <Gold.PLP.part.nonpolar>
-28.0730

> <Gold.PLP.part.repulsive>
0.1391

> <Gold.PLP.ligand.clash>
0.5384

> <Gold.PLP.ligand.torsion>
1.9296

> <Gold.PLP.Chemscore.Hbond>
2.9913

> <Gold.PLP.Chemscore.CHOScore>
0.0000

> <Gold.PLP.Chemscore.Metal>
0.0000

> <Gold.Chemscore.Hbonds>
donor molecule, donor type, donor heavy atom, donor atom, acceptor molecule, acceptor atom, score
      L1  H    20    41       P1  8028  1.00
      P1  H  6896  6908       L1     1  0.67
      P1  H 10752 10765       L1    10  0.96

> <Gold.PLP.Chemscore.Internal.Correction>
0.3762

> <Gold.Rescore>
     Score         DG    S(hbond)    S(metal)    S(lipo)     H(rot)  DE(clash)    DE(int)     intcor
     14.96     -18.19       2.70        0.00      78.28       2.13       0.04       3.19       ----

> <Gold.Chemscore.Fitness>
14.9596

> <Gold.Chemscore.DG>
-18.1940

> <Gold.Chemscore.ZeroCoef>
-5.4800

> <Gold.Chemscore.Hbond>
2.7005

> <Gold.Chemscore.Metal>
0.0000

> <Gold.Chemscore.Lipo>
78.2815

> <Gold.Chemscore.Internal_Hbond>
0.0000

> <Gold.Chemscore.DEClash>
0.0402

> <Gold.Chemscore.DEInternal>
3.1942

> <Gold.Chemscore.Rot>
2.1346

> <Gold.Chemscore.Internal.Correction>
   9.000000E+99

> <Gold.Chemscore.Hbonds>
donor molecule, donor type, donor heavy atom, donor atom, acceptor molecule, acceptor atom, score
      L1  H    20    41       P1  8028  0.97
      P1  H  6896  6908       L1     1  0.29
      P1  H 10752 10765       L1    10  0.61

> <Gold.Chemscore.Hbond.Weighted>
-9.0197

> <Gold.Chemscore.Metal.Weighted>
-0.0000

> <Gold.Chemscore.Lipo.Weighted>
-9.1589

> <Gold.Chemscore.Internal_Hbond.Weighted>
0.0000

> <Gold.Chemscore.DEClash.Weighted>
0.0402

> <Gold.Chemscore.DEInternal.Weighted>
3.1942

> <Gold.Chemscore.Rot.Weighted>
5.4646

> <Gold.Chemscore.Internal.Correction.Weighted>
   9.000000E+99

> <Gold.Protein.RotatedTorsions>
[ 6907 6896 6895 6894 ] final  122.24 input  -60.11 | X-H torsion
[ 7974 7965 7964 7962 ] final  -19.33 input  175.53 | X-H torsion
[ 8008 7997 7996 7995 ] final   -5.38 input   59.86 | X-H torsion
[ 10167 10162 10161 10158 ] final  119.25 input  -65.29 | X-H torsion
[ 10718 10713 10712 10709 ] final -168.91 input   66.30 | X-H torsion
[ 10763 10752 10751 10750 ] final  163.29 input  -60.55 | X-H torsion
[ 11005 11000 10999 10996 ] final  -88.08 input  -57.11 | X-H torsion

> <Gold.Protein.ActiveResidues>
 VAL166  LYS551  ARG553  GLY616  TRP617  ASP618  TYR619  PRO620  LYS621  CYS622 
 ASP623  PHE694  ASN695  SER759  ASP760  ASP761  ALA762  ILE779  LEU786  VAL792 
 PHE793  MET794  SER795  GLU796  ALA797  LYS798  CYS799  TRP800  GLU811  SER814 

> <Gold.Protein.RotatedAtoms>
  152.4259  133.7194  159.6524 H   0  0  0  0  0  0  0  0  0  0  0  0  # atno 6907 bound_to 6896
  150.8135  133.8368  159.3177 H   0  0  0  0  0  0  0  0  0  0  0  0  # atno 6908 bound_to 6896
  151.6071  135.1045  160.0124 H   0  0  0  0  0  0  0  0  0  0  0  0  # atno 6909 bound_to 6896
  146.1847  140.4047  142.8481 H   0  0  0  0  0  0  0  0  0  0  0  0  # atno 7974 bound_to 7965
  154.6045  140.2460  155.7748 H   0  0  0  0  0  0  0  0  0  0  0  0  # atno 8008 bound_to 7997
  156.2332  140.2959  156.0195 H   0  0  0  0  0  0  0  0  0  0  0  0  # atno 8009 bound_to 7997
  155.2155  140.0398  157.2930 H   0  0  0  0  0  0  0  0  0  0  0  0  # atno 8010 bound_to 7997
  139.6058  144.7069  151.2957 H   0  0  0  0  0  0  0  0  0  0  0  0  # atno 10167 bound_to 10162
  156.7038  130.9207  151.3082 H   0  0  0  0  0  0  0  0  0  0  0  0  # atno 10718 bound_to 10713
  154.2914  135.2761  155.2653 H   0  0  0  0  0  0  0  0  0  0  0  0  # atno 10763 bound_to 10752
  154.5130  135.5777  153.6623 H   0  0  0  0  0  0  0  0  0  0  0  0  # atno 10764 bound_to 10752
  152.9914  135.6186  154.3079 H   0  0  0  0  0  0  0  0  0  0  0  0  # atno 10765 bound_to 10752
  141.1607  133.7549  156.9400 H   0  0  0  0  0  0  0  0  0  0  0  0  # atno 11005 bound_to 11000
  144.8375  140.6806  143.6251 LP  0  0  0  0  0  0  0  0  0  0  0  0  # atno 17320 bound_to 7965
  145.3975  139.1604  143.4196 LP  0  0  0  0  0  0  0  0  0  0  0  0  # atno 17321 bound_to 7965
  140.7283  143.6938  150.7901 LP  0  0  0  0  0  0  0  0  0  0  0  0  # atno 17342 bound_to 10162
  140.0523  143.5237  152.2668 LP  0  0  0  0  0  0  0  0  0  0  0  0  # atno 17343 bound_to 10162
  157.6963  130.9285  150.0653 LP  0  0  0  0  0  0  0  0  0  0  0  0  # atno 17370 bound_to 10713
  156.1710  130.3646  149.9166 LP  0  0  0  0  0  0  0  0  0  0  0  0  # atno 17371 bound_to 10713
  140.1328  134.9345  157.2360 LP  0  0  0  0  0  0  0  0  0  0  0  0  # atno 17394 bound_to 11000
  140.2932  134.3216  155.7309 LP  0  0  0  0  0  0  0  0  0  0  0  0  # atno 17395 bound_to 11000

$$$$
