#       Name:                AV-unprocessed.smi:672
#       Creating user name   scv26
#       Creation time:       Fri Mar 27 00:25:46 2020


#       File generated by GOLD software.
#

@<TRIPOS>MOLECULE
AV-unprocessed.smi:672
    40    41     1
SMALL
NO_CHARGES


@<TRIPOS>ATOM
      1 ****        -6.2705   1.3248   0.2542 C.3            1 S1                 0.0000
      2 ****        -5.4727   2.6155   0.0396 C.3            1 S1                 0.0000
      3 ****        -4.1330   2.3663  -0.5683 C.2            1 S1                 0.0000
      4 ****        -3.9326   2.3222  -1.8881 N.2            1 S1                 0.0000
      5 ****        -2.6110   2.0473  -2.2075 N.2            1 S1                 0.0000
      6 ****        -1.8372   1.8629  -1.1283 C.2            1 S1                 0.0000
      7 ****        -0.5267   1.5836  -1.2192 N.pl3          1 S1                -1.0000
      8 ****        -0.1032   0.3020  -1.1345 C.2            1 S1                 0.0000
      9 ****        -0.8148  -0.6952  -0.9925 O.2            1 S1                 0.0000
     10 ****         1.2286   0.1674  -1.2105 N.am           1 S1                 0.0000
     11 ****         1.9696  -1.0903  -1.1372 C.3            1 S1                 0.0000
     12 ****         3.4202  -0.8980  -1.6215 C.3            1 S1                 0.0000
     13 ****         4.3176  -1.4781  -0.5254 C.3            1 S1                 0.0000
     14 ****         3.5057  -1.3142   0.7569 C.3            1 S1                 0.0000
     15 ****         4.0789  -2.4043   2.0913 S.3            1 S1                 0.0000
     16 ****         3.0428  -1.8114   3.4554 C.3            1 S1                 0.0000
     17 ****         2.0705  -1.6050   0.3125 C.3            1 S1                 0.0000
     18 ****        -2.7031   2.0420   0.3972 S.3            1 S1                 0.0000
     19 ****        -7.2413   1.5377   0.7018 H              1 S1                 0.0000
     20 ****        -5.7397   0.6417   0.9179 H              1 S1                 0.0000
     21 ****        -6.4438   0.8073  -0.6898 H              1 S1                 0.0000
     22 ****        -6.0312   3.2962  -0.6038 H              1 S1                 0.0000
     23 ****        -5.3342   3.1286   0.9916 H              1 S1                 0.0000
     24 ****         1.7716   1.0103  -1.3273 H              1 S1                 0.0000
     25 ****         1.4720  -1.8375  -1.7584 H              1 S1                 0.0000
     26 ****         3.5975  -1.3779  -2.5844 H              1 S1                 0.0000
     27 ****         3.6489   0.1618  -1.7460 H              1 S1                 0.0000
     28 ****         4.4933  -2.5367  -0.7225 H              1 S1                 0.0000
     29 ****         5.2881  -0.9836  -0.4742 H              1 S1                 0.0000
     30 ****         3.5778  -0.2777   1.0899 H              1 S1                 0.0000
     31 ****         3.2877  -2.3478   4.3721 H              1 S1                 0.0000
     32 ****         1.9875  -1.9724   3.2354 H              1 S1                 0.0000
     33 ****         3.2058  -0.7468   3.6236 H              1 S1                 0.0000
     34 ****         1.3346  -1.1597   0.9833 H              1 S1                 0.0000
     35 ****         1.8959  -2.6818   0.3175 H              1 S1                 0.0000
     36 ****        -4.6517   2.4702  -2.5671 LP             1 S1                 0.0000
     37 ****        -2.2705   1.9923  -3.1461 LP             1 S1                 0.0000
     38 ****         0.1349   2.3221  -1.3493 LP             1 S1                 0.0000
     39 ****        -1.8078  -0.5959  -0.9289 LP             1 S1                 0.0000
     40 ****        -0.3988  -1.6031  -0.9410 LP             1 S1                 0.0000
@<TRIPOS>BOND
    1    1    2 1     
    2    1   19 1     
    3    1   20 1     
    4    1   21 1     
    5    2    3 1     
    6    2   22 1     
    7    2   23 1     
    8    3   18 1     
    9    3    4 2     
   10    4    5 1     
   11    5    6 2     
   12    6    7 1     
   13    6   18 1     
   14    7    8 1     
   15    8    9 2     
   16    8   10 am    
   17   10   11 1     
   18   10   24 1     
   19   11   17 1     
   20   11   12 1     
   21   11   25 1     
   22   12   13 1     
   23   12   26 1     
   24   12   27 1     
   25   13   14 1     
   26   13   28 1     
   27   13   29 1     
   28   14   15 1     
   29   14   17 1     
   30   14   30 1     
   31   15   16 1     
   32   16   31 1     
   33   16   32 1     
   34   16   33 1     
   35   17   34 1     
   36   17   35 1     
   37    4   36 1     
   38    5   37 1     
   39    7   38 1     
   40    9   39 1     
   41    9   40 1     
@<TRIPOS>SUBSTRUCTURE
      1 S1             1
@<TRIPOS>SET
LONE_PAIRS      STATIC     ATOMS    <user>   **** ""
5 36 37 38 39 40
DONOR_HYDROGENS      STATIC     ATOMS    <user>   **** ""
1 24
ATOM$BLUE        STATIC     ATOMS    COLORGROUP SYSTEM
5 36 37 38 39 40
ATOM$RED        STATIC     ATOMS    COLORGROUP SYSTEM
1 24
