#       Name:                AV-unprocessed.smi:72
#       Creating user name   scv26
#       Creation time:       Thu Mar 26 17:03:44 2020


#       File generated by GOLD software.
#

@<TRIPOS>MOLECULE
AV-unprocessed.smi:72
    41    42     1
SMALL
NO_CHARGES


@<TRIPOS>ATOM
      1 ****        -3.9656   2.7288  -2.0771 N.2            1 S1                 0.0000
      2 ****        -3.0122   2.2367  -1.4155 C.2            1 S1                 0.0000
      3 ****        -1.7235   2.0337  -2.0395 N.2            1 S1                 0.0000
      4 ****        -0.7834   1.4948  -1.3256 C.2            1 S1                 0.0000
      5 ****        -1.0038   1.0827   0.0571 N.am           1 S1                 0.0000
      6 ****         0.0879   0.4513   0.9095 C.3            1 S1                 0.0000
      7 ****         1.2959   0.4310   0.2030 O.3            1 S1                 0.0000
      8 ****         1.4875  -0.8503  -0.3900 C.3            1 S1                 0.0000
      9 ****         2.9536  -1.0603  -0.8066 C.3            1 S1                 0.0000
     10 ****         3.1848  -0.4808  -2.0731 O.3            1 S1                 0.0000
     11 ****         0.9659  -1.7838   0.7062 C.3            1 S1                 0.0000
     12 ****         1.9581  -1.9874   1.6998 O.3            1 S1                 0.0000
     13 ****        -0.2490  -1.0214   1.2349 C.3            1 S1                 0.0000
     14 ****        -0.4779  -1.2553   2.6122 O.3            1 S1                 0.0000
     15 ****        -2.2673   1.3409   0.6549 C.2            1 S1                 0.0000
     16 ****        -2.4220   1.0375   1.8381 O.2            1 S1                 0.0000
     17 ****        -3.2485   1.9103  -0.0991 N.pl3          1 S1                -1.0000
     18 ****         0.1845   1.1012   1.7810 H              1 S1                 0.0000
     19 ****         0.8354  -0.9524  -1.2595 H              1 S1                 0.0000
     20 ****         0.6831  -2.7581   0.3065 H              1 S1                 0.0000
     21 ****        -1.1322  -1.3239   0.6699 H              1 S1                 0.0000
     22 ****        -4.8069   2.8194  -1.5262 H              1 S1                 0.0000
     23 ****         0.2178   1.3233  -1.7203 H              1 S1                 0.0000
     24 ****         3.6411  -0.6435  -0.0700 H              1 S1                 0.0000
     25 ****         3.1711  -2.1254  -0.8909 H              1 S1                 0.0000
     26 ****         4.0923  -0.6119  -2.3014 H              1 S1                 0.0000
     27 ****         1.5490  -2.4093   2.4403 H              1 S1                 0.0000
     28 ****        -1.2148  -0.7270   2.8814 H              1 S1                 0.0000
     29 ****        -3.8967   2.9986  -3.0375 LP             1 S1                 0.0000
     30 ****        -1.5622   2.2999  -2.9898 LP             1 S1                 0.0000
     31 ****         2.0506   0.6225   0.8305 LP             1 S1                 0.0000
     32 ****         1.2731   1.1282  -0.5135 LP             1 S1                 0.0000
     33 ****         2.9837   0.4982  -2.0380 LP             1 S1                 0.0000
     34 ****         2.5987  -0.9171  -2.7558 LP             1 S1                 0.0000
     35 ****         2.3426  -1.1079   1.9804 LP             1 S1                 0.0000
     36 ****         2.6863  -2.5692   1.3377 LP             1 S1                 0.0000
     37 ****         0.3328  -0.9996   3.1388 LP             1 S1                 0.0000
     38 ****        -0.6815  -2.2227   2.7625 LP             1 S1                 0.0000
     39 ****        -1.6703   0.6220   2.3502 LP             1 S1                 0.0000
     40 ****        -3.2994   1.2066   2.2871 LP             1 S1                 0.0000
     41 ****        -4.1448   2.0921   0.3055 LP             1 S1                 0.0000
@<TRIPOS>BOND
    1    1    2 2     
    2    1   22 1     
    3    2   17 1     
    4    2    3 1     
    5    3    4 2     
    6    4    5 1     
    7    4   23 1     
    8    5    6 1     
    9    5   15 am    
   10    6   18 1     
   11    6   13 1     
   12    6    7 1     
   13    7    8 1     
   14    8   19 1     
   15    8    9 1     
   16    8   11 1     
   17    9   10 1     
   18    9   24 1     
   19    9   25 1     
   20   10   26 1     
   21   11   20 1     
   22   11   12 1     
   23   11   13 1     
   24   12   27 1     
   25   13   21 1     
   26   13   14 1     
   27   14   28 1     
   28   15   16 2     
   29   15   17 1     
   30    1   29 1     
   31    3   30 1     
   32    7   31 1     
   33    7   32 1     
   34   10   33 1     
   35   10   34 1     
   36   12   35 1     
   37   12   36 1     
   38   14   37 1     
   39   14   38 1     
   40   16   39 1     
   41   16   40 1     
   42   17   41 1     
@<TRIPOS>SUBSTRUCTURE
      1 S1             1
@<TRIPOS>SET
LONE_PAIRS      STATIC     ATOMS    <user>   **** ""
13 29 30 31 32 33 34 35 36 37 38 39 40 41
DONOR_HYDROGENS      STATIC     ATOMS    <user>   **** ""
4 22 26 27 28
ATOM$BLUE        STATIC     ATOMS    COLORGROUP SYSTEM
13 29 30 31 32 33 34 35 36 37 38 39 40 41
ATOM$RED        STATIC     ATOMS    COLORGROUP SYSTEM
4 22 26 27 28
