#       Name:                AV-unprocessed.smi:2147
#       Creating user name   scv26
#       Creation time:       Fri Mar 27 11:51:45 2020


#       File generated by GOLD software.
#

@<TRIPOS>MOLECULE
AV-unprocessed.smi:2147
    48    50     1
SMALL
NO_CHARGES


@<TRIPOS>ATOM
      1 ****        -4.9591   5.7399   0.6707 C.3            1 S1                 0.0000
      2 ****        -3.4314   5.7361   0.6527 C.2            1 S1                 0.0000
      3 ****        -2.8384   6.8130   0.5976 O.2            1 S1                 0.0000
      4 ****        -2.7385   4.4172   0.7025 C.ar           1 S1                 0.0000
      5 ****        -3.4546   3.1994   0.7651 C.ar           1 S1                 0.0000
      6 ****        -2.7694   1.9699   0.8083 C.ar           1 S1                 0.0000
      7 ****        -1.3615   1.9237   0.7904 C.ar           1 S1                 0.0000
      8 ****        -0.7737   0.6777   0.8324 O.3            1 S1                 0.0000
      9 ****         0.6452   0.6023   0.7822 C.3            1 S1                 0.0000
     10 ****         1.0718  -0.8728   0.7941 C.3            1 S1                 0.0000
     11 ****         2.4766  -0.9264   0.9456 O.3            1 S1                 0.0000
     12 ****         0.6542  -1.6157  -0.4902 C.3            1 S1                 0.0000
     13 ****         1.0499  -3.0129  -0.4800 N.pl3          1 S1                 0.0000
     14 ****         0.3766  -4.0411   0.0710 C.2            1 S1                 0.0000
     15 ****         0.9183  -5.2511  -0.0351 N.2            1 S1                 0.0000
     16 ****         2.0785  -4.9772  -0.7391 C.ar           1 S1                 0.0000
     17 ****         3.1083  -5.8383  -1.1812 C.ar           1 S1                 0.0000
     18 ****         4.2133  -5.3245  -1.8916 C.ar           1 S1                 0.0000
     19 ****         4.3068  -3.9451  -2.1688 C.ar           1 S1                 0.0000
     20 ****         3.2932  -3.0675  -1.7386 C.ar           1 S1                 0.0000
     21 ****         2.1912  -3.5844  -1.0322 C.ar           1 S1                 0.0000
     22 ****        -0.6431   3.1429   0.7308 C.ar           1 S1                 0.0000
     23 ****        -1.3264   4.3734   0.6866 C.ar           1 S1                 0.0000
     24 ****        -5.3532   5.1992  -0.1899 H              1 S1                 0.0000
     25 ****        -5.3383   6.7615   0.6337 H              1 S1                 0.0000
     26 ****        -5.3322   5.2715   1.5815 H              1 S1                 0.0000
     27 ****        -4.5341   3.1827   0.7801 H              1 S1                 0.0000
     28 ****        -3.3330   1.0496   0.8548 H              1 S1                 0.0000
     29 ****         1.0280   1.0929  -0.1145 H              1 S1                 0.0000
     30 ****         1.0635   1.1121   1.6521 H              1 S1                 0.0000
     31 ****         0.6292  -1.3646   1.6613 H              1 S1                 0.0000
     32 ****         2.7400  -1.8337   0.9765 H              1 S1                 0.0000
     33 ****        -0.4282  -1.5708  -0.6170 H              1 S1                 0.0000
     34 ****         1.0885  -1.1364  -1.3685 H              1 S1                 0.0000
     35 ****        -0.5650  -3.8923   0.5794 H              1 S1                 0.0000
     36 ****         3.0479  -6.8965  -0.9737 H              1 S1                 0.0000
     37 ****         4.9938  -5.9925  -2.2253 H              1 S1                 0.0000
     38 ****         5.1577  -3.5608  -2.7121 H              1 S1                 0.0000
     39 ****         3.3625  -2.0101  -1.9473 H              1 S1                 0.0000
     40 ****         0.4360   3.1635   0.7178 H              1 S1                 0.0000
     41 ****        -0.7489   5.2855   0.6396 H              1 S1                 0.0000
     42 ****        -3.3563   7.6679   0.5656 LP             1 S1                 0.0000
     43 ****        -1.8387   6.8332   0.5848 LP             1 S1                 0.0000
     44 ****        -1.1261   0.1573   0.0545 LP             1 S1                 0.0000
     45 ****        -1.0639   0.2415   1.6841 LP             1 S1                 0.0000
     46 ****         2.7422  -0.4688   1.7941 LP             1 S1                 0.0000
     47 ****         2.9171  -0.4733   0.1705 LP             1 S1                 0.0000
     48 ****         0.5773  -6.1278   0.3042 LP             1 S1                 0.0000
@<TRIPOS>BOND
    1    1    2 1     
    2    1   24 1     
    3    1   25 1     
    4    1   26 1     
    5    2    3 2     
    6    2    4 1     
    7    4   23 ar    
    8    4    5 ar    
    9    5    6 ar    
   10    5   27 1     
   11    6    7 ar    
   12    6   28 1     
   13    7    8 1     
   14    7   22 ar    
   15    8    9 1     
   16    9   10 1     
   17    9   29 1     
   18    9   30 1     
   19   10   11 1     
   20   10   12 1     
   21   10   31 1     
   22   11   32 1     
   23   12   13 1     
   24   12   33 1     
   25   12   34 1     
   26   13   21 1     
   27   13   14 1     
   28   14   15 2     
   29   14   35 1     
   30   15   16 1     
   31   16   21 ar    
   32   16   17 ar    
   33   17   18 ar    
   34   17   36 1     
   35   18   19 ar    
   36   18   37 1     
   37   19   20 ar    
   38   19   38 1     
   39   20   21 ar    
   40   20   39 1     
   41   22   23 ar    
   42   22   40 1     
   43   23   41 1     
   44    3   42 1     
   45    3   43 1     
   46    8   44 1     
   47    8   45 1     
   48   11   46 1     
   49   11   47 1     
   50   15   48 1     
@<TRIPOS>SUBSTRUCTURE
      1 S1             1
@<TRIPOS>SET
LONE_PAIRS      STATIC     ATOMS    <user>   **** ""
7 42 43 44 45 46 47 48
DONOR_HYDROGENS      STATIC     ATOMS    <user>   **** ""
1 32
ATOM$BLUE        STATIC     ATOMS    COLORGROUP SYSTEM
7 42 43 44 45 46 47 48
ATOM$RED        STATIC     ATOMS    COLORGROUP SYSTEM
1 32
