#       Name:                AV-unprocessed.smi:86
#       Creating user name   scv26
#       Creation time:       Thu Mar 26 17:21:06 2020


#       File generated by GOLD software.
#

@<TRIPOS>MOLECULE
AV-unprocessed.smi:86
    60    64     1
SMALL
NO_CHARGES


@<TRIPOS>ATOM
      1 ****        -4.1880  -1.7574  -3.4697 O.3            1 S1                 0.0000
      2 ****        -3.9395  -2.5445  -2.3228 C.3            1 S1                 0.0000
      3 ****        -2.9244  -3.6624  -2.6186 C.3            1 S1                 0.0000
      4 ****        -1.5578  -3.0616  -3.0056 C.3            1 S1                 0.0000
      5 ****        -0.9740  -2.2179  -1.9734 N.pl3          1 S1                 0.0000
      6 ****        -0.3146  -2.6367  -0.8406 C.2            1 S1                 0.0000
      7 ****         0.1159  -1.6815  -0.0633 N.2            1 S1                 0.0000
      8 ****        -0.2565  -0.5105  -0.7148 C.ar           1 S1                 0.0000
      9 ****        -0.1104   0.8804  -0.4343 C.ar           1 S1                 0.0000
     10 ****         0.5068   1.3771   0.6680 N.pl3          1 S1                 0.0000
     11 ****         1.5300   0.6308   1.3976 C.3            1 S1                 0.0000
     12 ****         2.4502   1.7151   1.9618 C.3            1 S1                 0.0000
     13 ****         3.2446   1.4233   3.2402 C.3            1 S1                 0.0000
     14 ****         4.0275   2.6915   3.6457 C.3            1 S1                 0.0000
     15 ****         3.1155   3.9385   3.7580 C.3            1 S1                 0.0000
     16 ****         3.9077   5.0811   4.0040 O.3            1 S1                 0.0000
     17 ****         2.2637   4.1656   2.4880 C.3            1 S1                 0.0000
     18 ****         1.4915   2.8784   2.1757 C.3            1 S1                 0.0000
     19 ****         0.6446   2.8124   0.9072 C.3            1 S1                 0.0000
     20 ****        -0.6445   1.7544  -1.3278 N.ar           1 S1                 0.0000
     21 ****        -1.2615   1.3104  -2.4261 C.ar           1 S1                 0.0000
     22 ****        -1.4622   0.0518  -2.8176 N.ar           1 S1                 0.0000
     23 ****        -0.9433  -0.8343  -1.9206 C.ar           1 S1                 0.0000
     24 ****        -2.8933  -4.7815  -1.5675 C.3            1 S1                 0.0000
     25 ****        -3.6794  -5.6616  -2.3979 O.3            1 S1                 0.0000
     26 ****        -3.4452  -4.7881  -3.5231 C.3            1 S1                 0.0000
     27 ****        -4.8047  -1.0792  -3.2401 H              1 S1                 0.0000
     28 ****        -3.6039  -1.8980  -1.5119 H              1 S1                 0.0000
     29 ****        -4.8910  -2.9663  -1.9972 H              1 S1                 0.0000
     30 ****        -0.8420  -3.8551  -3.2237 H              1 S1                 0.0000
     31 ****        -1.6357  -2.4820  -3.9261 H              1 S1                 0.0000
     32 ****        -0.1632  -3.6792  -0.6025 H              1 S1                 0.0000
     33 ****         1.0555   0.0580   2.1950 H              1 S1                 0.0000
     34 ****         2.0854  -0.0546   0.7567 H              1 S1                 0.0000
     35 ****         3.1565   1.9863   1.1741 H              1 S1                 0.0000
     36 ****         2.5693   1.1278   4.0442 H              1 S1                 0.0000
     37 ****         3.9303   0.5908   3.0801 H              1 S1                 0.0000
     38 ****         4.5425   2.5189   4.5912 H              1 S1                 0.0000
     39 ****         4.8055   2.8775   2.9034 H              1 S1                 0.0000
     40 ****         2.4485   3.8096   4.6115 H              1 S1                 0.0000
     41 ****         4.4933   5.2030   3.2725 H              1 S1                 0.0000
     42 ****         1.5713   4.9951   2.6364 H              1 S1                 0.0000
     43 ****         2.9025   4.4319   1.6443 H              1 S1                 0.0000
     44 ****         0.8408   2.6503   3.0228 H              1 S1                 0.0000
     45 ****         1.1587   3.2822   0.0674 H              1 S1                 0.0000
     46 ****        -0.3240   3.2954   1.0403 H              1 S1                 0.0000
     47 ****        -1.6505   2.0729  -3.0846 H              1 S1                 0.0000
     48 ****        -1.9004  -5.1927  -1.3801 H              1 S1                 0.0000
     49 ****        -3.3923  -4.5279  -0.6314 H              1 S1                 0.0000
     50 ****        -4.3615  -4.5414  -4.0611 H              1 S1                 0.0000
     51 ****        -2.6940  -5.1956  -4.2018 H              1 S1                 0.0000
     52 ****        -4.5705  -2.3296  -4.1952 LP             1 S1                 0.0000
     53 ****        -3.3344  -1.3439  -3.7865 LP             1 S1                 0.0000
     54 ****         0.6036  -1.7711   0.8050 LP             1 S1                 0.0000
     55 ****         4.4374   4.9503   4.8420 LP             1 S1                 0.0000
     56 ****         3.3200   5.8841   4.1031 LP             1 S1                 0.0000
     57 ****        -0.5749   2.7380  -1.1615 LP             1 S1                 0.0000
     58 ****        -1.9328  -0.2088  -3.6607 LP             1 S1                 0.0000
     59 ****        -4.6393  -5.7325  -2.1267 LP             1 S1                 0.0000
     60 ****        -3.2943  -6.5784  -2.5034 LP             1 S1                 0.0000
@<TRIPOS>BOND
    1    1    2 1     
    2    1   27 1     
    3    2    3 1     
    4    2   28 1     
    5    2   29 1     
    6    3   26 1     
    7    3    4 1     
    8    3   24 1     
    9    4    5 1     
   10    4   30 1     
   11    4   31 1     
   12    5   23 1     
   13    5    6 1     
   14    6    7 2     
   15    6   32 1     
   16    7    8 1     
   17    8   23 ar    
   18    8    9 ar    
   19    9   10 1     
   20    9   20 ar    
   21   10   19 1     
   22   10   11 1     
   23   11   12 1     
   24   11   33 1     
   25   11   34 1     
   26   12   18 1     
   27   12   13 1     
   28   12   35 1     
   29   13   14 1     
   30   13   36 1     
   31   13   37 1     
   32   14   15 1     
   33   14   38 1     
   34   14   39 1     
   35   15   16 1     
   36   15   17 1     
   37   15   40 1     
   38   16   41 1     
   39   17   18 1     
   40   17   42 1     
   41   17   43 1     
   42   18   19 1     
   43   18   44 1     
   44   19   45 1     
   45   19   46 1     
   46   20   21 ar    
   47   21   22 ar    
   48   21   47 1     
   49   22   23 ar    
   50   24   25 1     
   51   24   48 1     
   52   24   49 1     
   53   25   26 1     
   54   26   50 1     
   55   26   51 1     
   56    1   52 1     
   57    1   53 1     
   58    7   54 1     
   59   16   55 1     
   60   16   56 1     
   61   20   57 1     
   62   22   58 1     
   63   25   59 1     
   64   25   60 1     
@<TRIPOS>SUBSTRUCTURE
      1 S1             1
@<TRIPOS>SET
LONE_PAIRS      STATIC     ATOMS    <user>   **** ""
9 52 53 54 55 56 57 58 59 60
DONOR_HYDROGENS      STATIC     ATOMS    <user>   **** ""
2 27 41
ATOM$BLUE        STATIC     ATOMS    COLORGROUP SYSTEM
9 52 53 54 55 56 57 58 59 60
ATOM$RED        STATIC     ATOMS    COLORGROUP SYSTEM
2 27 41
