AV-unprocessed.smi:1828|AV-procd|sdf|7426|dock2
  -GOLD-   22720 9103D 1   1.00000     0.00000
 Structure written by MMmdl.
 40 42  0  0  0  0  0  0  0  0  2 V2000
  151.3619  136.5638  154.4004 O   0  0  0  0  0  0  0  0  0  0  0  0
  151.7411  137.9023  154.1673 C   0  0  0  0  0  0  0  0  0  0  0  0
  150.5761  138.8395  154.1875 C   0  0  0  0  0  0  0  0  0  0  0  0
  149.4443  138.7015  153.4403 N   0  3  0  0  0  0  0  0  0  0  0  0
  148.5562  139.7379  153.7265 C   0  0  0  0  0  0  0  0  0  0  0  0
  147.2888  140.0169  153.2248 C   0  0  0  0  0  0  0  0  0  0  0  0
  146.6429  141.1607  153.7381 C   0  0  0  0  0  0  0  0  0  0  0  0
  147.2568  141.9757  154.7113 C   0  0  0  0  0  0  0  0  0  0  0  0
  148.5425  141.6826  155.2119 C   0  0  0  0  0  0  0  0  0  0  0  0
  149.1749  140.5510  154.6974 C   0  0  0  0  0  0  0  0  0  0  0  0
  150.4195  139.9627  154.9507 N   0  0  0  0  0  0  0  0  0  0  0  0
  151.3081  140.5832  155.9479 C   0  0  0  0  0  0  0  0  0  0  0  0
  151.0949  140.0134  157.3648 C   0  0  2  0  0  0  0  0  0  0  0  0
  149.7053  139.9123  157.5964 O   0  0  0  0  0  0  0  0  0  0  0  0
  151.8050  140.8404  158.4279 C   0  0  0  0  0  0  0  0  0  0  0  0
  152.7361  140.2463  159.3072 C   0  0  0  0  0  0  0  0  0  0  0  0
  153.3559  141.0183  160.3078 C   0  0  0  0  0  0  0  0  0  0  0  0
  153.0461  142.3854  160.4397 C   0  0  0  0  0  0  0  0  0  0  0  0
  152.1132  142.9896  159.5684 C   0  0  0  0  0  0  0  0  0  0  0  0
  151.7437  144.4590  159.7003 C   0  0  0  0  0  0  0  0  0  0  0  0
  152.1984  145.1299  158.6423 F   0  0  0  0  0  0  0  0  0  0  0  0
  150.4164  144.5761  159.7451 F   0  0  0  0  0  0  0  0  0  0  0  0
  152.2553  145.0070  160.8029 F   0  0  0  0  0  0  0  0  0  0  0  0
  151.5022  142.2117  158.5629 C   0  0  0  0  0  0  0  0  0  0  0  0
  150.4606  136.4566  154.1364 H   0  0  0  0  0  0  0  0  0  0  0  0
  152.4533  138.2077  154.9344 H   0  0  0  0  0  0  0  0  0  0  0  0
  152.2611  137.9573  153.2121 H   0  0  0  0  0  0  0  0  0  0  0  0
  146.8160  139.3929  152.4804 H   0  0  0  0  0  0  0  0  0  0  0  0
  145.6567  141.4174  153.3790 H   0  0  0  0  0  0  0  0  0  0  0  0
  146.7308  142.8438  155.0820 H   0  0  0  0  0  0  0  0  0  0  0  0
  149.0027  142.3124  155.9590 H   0  0  0  0  0  0  0  0  0  0  0  0
  152.3396  140.4429  155.6249 H   0  0  0  0  0  0  0  0  0  0  0  0
  151.1368  141.6604  155.9327 H   0  0  0  0  0  0  0  0  0  0  0  0
  151.4850  138.9956  157.4029 H   0  0  0  0  0  0  0  0  0  0  0  0
  149.2885  139.6205  156.7998 H   0  0  0  0  0  0  0  0  0  0  0  0
  152.9716  139.1952  159.2247 H   0  0  0  0  0  0  0  0  0  0  0  0
  154.0666  140.5594  160.9795 H   0  0  0  0  0  0  0  0  0  0  0  0
  153.5268  142.9610  161.2166 H   0  0  0  0  0  0  0  0  0  0  0  0
  150.7811  142.6706  157.9022 H   0  0  0  0  0  0  0  0  0  0  0  0
  149.2956  137.9478  152.7815 H   0  0  0  0  0  0  0  0  0  0  0  0
  1  2  1  0  0  0  0
  1 25  1  0  0  0  0
  2  3  1  0  0  0  0
  2 26  1  0  0  0  0
  2 27  1  0  0  0  0
  3 11  1  0  0  0  0
  3  4  2  0  0  0  0
  4  5  1  0  0  0  0
  4 40  1  0  0  0  0
  5 10  2  0  0  0  0
  5  6  1  0  0  0  0
  6  7  2  0  0  0  0
  6 28  1  0  0  0  0
  7  8  1  0  0  0  0
  7 29  1  0  0  0  0
  8  9  2  0  0  0  0
  8 30  1  0  0  0  0
  9 10  1  0  0  0  0
  9 31  1  0  0  0  0
 10 11  1  0  0  0  0
 11 12  1  0  0  0  0
 12 13  1  0  0  0  0
 12 32  1  0  0  0  0
 12 33  1  0  0  0  0
 13 14  1  0  0  0  0
 13 15  1  0  0  0  0
 13 34  1  0  0  0  0
 14 35  1  0  0  0  0
 15 24  1  0  0  0  0
 15 16  2  0  0  0  0
 16 17  1  0  0  0  0
 16 36  1  0  0  0  0
 17 18  2  0  0  0  0
 17 37  1  0  0  0  0
 18 19  1  0  0  0  0
 18 38  1  0  0  0  0
 19 20  1  0  0  0  0
 19 24  2  0  0  0  0
 20 21  1  0  0  0  0
 20 22  1  0  0  0  0
 20 23  1  0  0  0  0
 24 39  1  0  0  0  0
M  CHG  1   4   1
M  END
> <s_m_source_file>
AV-unprocessed.smi

> <i_m_source_file_index>
1828

> <i_lp_mmshare_version>
43012

> <i_f3d_flags>
0

> <s_epik_input>
W2NIXTFbY0hdW2NIXVtjSF1jKGMxMiluKGMobjIpW0NIMl1bT0hdKVtDSDJdW0NASF0oW09IXSljM1tjSF1bY0hdW2NIXWMoQyhGKShGKUYpW2NIXTM=

> <s_epik_cmdline>
J2VwaWtfcHl0aG9uJywgJy1waCcsICc3LjAnLCAnLXRuJywgJzgnLCAnLW1hJywgJzIwMCcsICctbWV0YWxfYmluZGluZycsICctaW1hZScsICc8aW5maWxlLm1hZT4nLCAnLW9tYWUnLCAnPG91dGZpbGUubWFlPic=

> <r_epik_Ionization_Penalty>
1.35643

> <r_epik_Ionization_Penalty_Charging>
1.35557

> <r_epik_Ionization_Penalty_Neutral>
0.000856502

> <r_epik_State_Penalty>
1.43401

> <r_epik_Charging_Adjusted_Penalty>
2.78958

> <i_epik_Tot_Q>
1

> <i_epik_Tot_abs_Q>
1

> <r_epik_Metal_State_Penalty>
5.47166

> <b_epik_Metal_Only>
0

> <s_lp_Force_Field>
OPLS_2005

> <r_lp_Energy>
16.3516

> <b_lp_Chiralities_Consistent>
1

> <s_lp_Variant>
AV-unprocessed.smi:1828-3

> <Gold.Version>
5.8.1

> <Gold.Id.Protein>
6NUR|6NUR_protein|mol2

> <Gold.PLP.Fitness>
66.7354

> <Gold.PLP.PLP>
-59.1784

> <Gold.PLP.part.hbond>
-4.0000

> <Gold.PLP.part.metal>
0.0000

> <Gold.PLP.part.buried>
-1.4838

> <Gold.PLP.part.nonpolar>
-53.7549

> <Gold.PLP.part.repulsive>
0.0903

> <Gold.PLP.ligand.clash>
0.0000

> <Gold.PLP.ligand.torsion>
0.7522

> <Gold.PLP.Chemscore.Hbond>
3.0000

> <Gold.PLP.Chemscore.CHOScore>
0.0000

> <Gold.PLP.Chemscore.Metal>
0.0000

> <Gold.Chemscore.Hbonds>
donor molecule, donor type, donor heavy atom, donor atom, acceptor molecule, acceptor atom, score
      L1  H     4    40       P1  7948  2.00
      P1  H 10752 10764       L1     1  1.00

> <Gold.PLP.Chemscore.Internal.Correction>
0.0615

> <Gold.Rescore>
     Score         DG    S(hbond)    S(metal)    S(lipo)     H(rot)  DE(clash)    DE(int)     intcor
     15.68     -17.54       1.71        0.00     119.56       2.98       0.31       1.56       ----

> <Gold.Chemscore.Fitness>
15.6796

> <Gold.Chemscore.DG>
-17.5449

> <Gold.Chemscore.ZeroCoef>
-5.4800

> <Gold.Chemscore.Hbond>
1.7098

> <Gold.Chemscore.Metal>
0.0000

> <Gold.Chemscore.Lipo>
119.5602

> <Gold.Chemscore.Internal_Hbond>
0.0000

> <Gold.Chemscore.DEClash>
0.3071

> <Gold.Chemscore.DEInternal>
1.5582

> <Gold.Chemscore.Rot>
2.9822

> <Gold.Chemscore.Internal.Correction>
   9.000000E+99

> <Gold.Chemscore.Hbonds>
donor molecule, donor type, donor heavy atom, donor atom, acceptor molecule, acceptor atom, score
      L1  H     4    40       P1  7948  0.94
      P1  H 10752 10764       L1     1  0.25

> <Gold.Chemscore.Hbond.Weighted>
-5.7107

> <Gold.Chemscore.Metal.Weighted>
-0.0000

> <Gold.Chemscore.Lipo.Weighted>
-13.9885

> <Gold.Chemscore.Internal_Hbond.Weighted>
0.0000

> <Gold.Chemscore.DEClash.Weighted>
0.3071

> <Gold.Chemscore.DEInternal.Weighted>
1.5582

> <Gold.Chemscore.Rot.Weighted>
7.6343

> <Gold.Chemscore.Internal.Correction.Weighted>
   9.000000E+99

> <Gold.Protein.RotatedTorsions>
[ 6907 6896 6895 6894 ] final  -11.92 input  -60.11 | X-H torsion
[ 7974 7965 7964 7962 ] final  -41.68 input  175.53 | X-H torsion
[ 8008 7997 7996 7995 ] final   35.67 input   59.86 | X-H torsion
[ 10167 10162 10161 10158 ] final  -67.38 input  -65.29 | X-H torsion
[ 10718 10713 10712 10709 ] final  165.55 input   66.30 | X-H torsion
[ 10763 10752 10751 10750 ] final  -92.50 input  -60.55 | X-H torsion
[ 11005 11000 10999 10996 ] final  -52.70 input  -57.11 | X-H torsion

> <Gold.Protein.ActiveResidues>
 VAL166  LYS551  ARG553  GLY616  TRP617  ASP618  TYR619  PRO620  LYS621  CYS622 
 ASP623  PHE694  ASN695  SER759  ASP760  ASP761  ALA762  ILE779  LEU786  VAL792 
 PHE793  MET794  SER795  GLU796  ALA797  LYS798  CYS799  TRP800  GLU811  SER814 

> <Gold.Protein.RotatedAtoms>
  151.3787  135.0936  159.9488 H   0  0  0  0  0  0  0  0  0  0  0  0  # atno 6907 bound_to 6896
  152.5114  133.9094  159.7490 H   0  0  0  0  0  0  0  0  0  0  0  0  # atno 6908 bound_to 6896
  150.9522  133.6481  159.2798 H   0  0  0  0  0  0  0  0  0  0  0  0  # atno 6909 bound_to 6896
  146.0188  140.6876  142.9188 H   0  0  0  0  0  0  0  0  0  0  0  0  # atno 7974 bound_to 7965
  155.1749  140.3295  155.4386 H   0  0  0  0  0  0  0  0  0  0  0  0  # atno 8008 bound_to 7997
  156.2497  140.1937  156.6801 H   0  0  0  0  0  0  0  0  0  0  0  0  # atno 8009 bound_to 7997
  154.6311  140.0582  156.9720 H   0  0  0  0  0  0  0  0  0  0  0  0  # atno 8010 bound_to 7997
  140.5587  143.2312  151.6770 H   0  0  0  0  0  0  0  0  0  0  0  0  # atno 10167 bound_to 10162
  157.0785  131.0385  151.2584 H   0  0  0  0  0  0  0  0  0  0  0  0  # atno 10718 bound_to 10713
  154.6866  135.5229  153.8335 H   0  0  0  0  0  0  0  0  0  0  0  0  # atno 10763 bound_to 10752
  153.0602  135.6565  154.0490 H   0  0  0  0  0  0  0  0  0  0  0  0  # atno 10764 bound_to 10752
  154.0370  135.2980  155.3340 H   0  0  0  0  0  0  0  0  0  0  0  0  # atno 10765 bound_to 10752
  141.0938  133.6628  156.4063 H   0  0  0  0  0  0  0  0  0  0  0  0  # atno 11005 bound_to 11000
  144.6981  140.3528  143.7178 LP  0  0  0  0  0  0  0  0  0  0  0  0  # atno 17320 bound_to 7965
  145.7227  139.1714  143.2475 LP  0  0  0  0  0  0  0  0  0  0  0  0  # atno 17321 bound_to 7965
  139.5060  144.3698  152.0482 LP  0  0  0  0  0  0  0  0  0  0  0  0  # atno 17342 bound_to 10162
  140.2822  144.3847  150.6115 LP  0  0  0  0  0  0  0  0  0  0  0  0  # atno 17343 bound_to 10162
  157.4820  130.7770  149.7423 LP  0  0  0  0  0  0  0  0  0  0  0  0  # atno 17370 bound_to 10713
  155.9930  130.3927  150.2918 LP  0  0  0  0  0  0  0  0  0  0  0  0  # atno 17371 bound_to 10713
  140.5189  134.6323  157.5311 LP  0  0  0  0  0  0  0  0  0  0  0  0  # atno 17394 bound_to 11000
  139.9769  134.7200  155.9932 LP  0  0  0  0  0  0  0  0  0  0  0  0  # atno 17395 bound_to 11000

$$$$
