AV-unprocessed.smi:174|AV-procd|sdf|1425|dock4
  -GOLD-   2262019193D 1   1.00000     0.00000
 Structure written by MMmdl.
 51 54  0  0  0  0  0  0  0  0  1 V2000
  147.7115  131.3571  151.9671 N   0  0  0  0  0  0  0  0  0  0  0  0
  148.3120  131.5234  153.1505 C   0  0  0  0  0  0  0  0  0  0  0  0
  147.7573  131.2085  154.2007 O   0  0  0  0  0  0  0  0  0  0  0  0
  149.7300  132.1198  153.1937 C   0  0  0  0  0  0  0  0  0  0  0  0
  149.9272  133.1985  154.1782 N   0  0  0  0  0  0  0  0  0  0  0  0
  149.0485  134.3670  154.0575 C   0  0  0  0  0  0  0  0  0  0  0  0
  149.7407  135.6586  154.5035 C   0  0  0  0  0  0  0  0  0  0  0  0
  150.2968  135.4968  155.8412 N   0  0  0  0  0  0  0  0  0  0  0  0
  150.5692  136.5926  156.6043 C   0  0  0  0  0  0  0  0  0  0  0  0
  150.6490  136.4175  157.9506 N   0  0  0  0  0  0  0  0  0  0  0  0
  150.9045  137.4469  158.7619 C   0  0  0  0  0  0  0  0  0  0  0  0
  151.1137  138.7246  158.4455 N   0  0  0  0  0  0  0  0  0  0  0  0
  151.0453  138.9141  157.0976 C   0  0  0  0  0  0  0  0  0  0  0  0
  150.7822  137.9179  156.1117 C   0  0  0  0  0  0  0  0  0  0  0  0
  150.8107  138.5042  154.8490 N   0  0  0  0  0  0  0  0  0  0  0  0
  151.0577  139.7647  155.0764 C   0  0  0  0  0  0  0  0  0  0  0  0
  151.2121  140.0971  156.4012 N   0  0  0  0  0  0  0  0  0  0  0  0
  151.4916  141.4153  156.9420 C   0  0  0  0  0  0  0  0  0  0  0  0
  150.2855  142.0050  157.6979 C   0  0  2  0  0  0  0  0  0  0  0  0
  149.2206  142.2728  156.8049 O   0  0  0  0  0  0  0  0  0  0  0  0
  150.6478  143.2648  158.5103 C   0  0  2  0  0  0  0  0  0  0  0  0
  151.4402  144.3479  157.7737 C   0  0  0  0  0  0  0  0  0  0  0  0
  152.0817  145.0801  158.9312 C   0  0  0  0  0  0  0  0  0  0  0  0
  152.4141  143.9314  159.8806 C   0  0  0  0  0  0  0  0  0  0  0  0
  151.3982  142.9516  159.6813 O   0  0  0  0  0  0  0  0  0  0  0  0
  151.0155  134.2551  156.1705 C   0  0  0  0  0  0  0  0  0  0  0  0
  150.8344  133.0897  155.1796 C   0  0  0  0  0  0  0  0  0  0  0  0
  151.5361  132.0897  155.3318 O   0  0  0  0  0  0  0  0  0  0  0  0
  146.7783  130.9734  151.9291 H   0  0  0  0  0  0  0  0  0  0  0  0
  148.1884  131.6217  151.1176 H   0  0  0  0  0  0  0  0  0  0  0  0
  150.4382  131.3092  153.3748 H   0  0  0  0  0  0  0  0  0  0  0  0
  149.9708  132.4809  152.1934 H   0  0  0  0  0  0  0  0  0  0  0  0
  148.6947  134.4884  153.0333 H   0  0  0  0  0  0  0  0  0  0  0  0
  148.1632  134.1926  154.6706 H   0  0  0  0  0  0  0  0  0  0  0  0
  150.5393  135.9203  153.8075 H   0  0  0  0  0  0  0  0  0  0  0  0
  149.0054  136.4637  154.4858 H   0  0  0  0  0  0  0  0  0  0  0  0
  150.9470  137.2123  159.8152 H   0  0  0  0  0  0  0  0  0  0  0  0
  151.1322  140.4911  154.2802 H   0  0  0  0  0  0  0  0  0  0  0  0
  152.3522  141.3356  157.6072 H   0  0  0  0  0  0  0  0  0  0  0  0
  151.7896  142.0710  156.1229 H   0  0  0  0  0  0  0  0  0  0  0  0
  149.9178  141.2548  158.3992 H   0  0  0  0  0  0  0  0  0  0  0  0
  149.3498  143.1322  156.4340 H   0  0  0  0  0  0  0  0  0  0  0  0
  149.7210  143.7184  158.8658 H   0  0  0  0  0  0  0  0  0  0  0  0
  152.2166  143.9196  157.1391 H   0  0  0  0  0  0  0  0  0  0  0  0
  150.8103  144.9894  157.1568 H   0  0  0  0  0  0  0  0  0  0  0  0
  152.9578  145.6609  158.6415 H   0  0  0  0  0  0  0  0  0  0  0  0
  151.3607  145.7550  159.3948 H   0  0  0  0  0  0  0  0  0  0  0  0
  153.3759  143.4892  159.6172 H   0  0  0  0  0  0  0  0  0  0  0  0
  152.4622  144.2514  160.9218 H   0  0  0  0  0  0  0  0  0  0  0  0
  152.0823  134.4702  156.2527 H   0  0  0  0  0  0  0  0  0  0  0  0
  150.6858  133.8952  157.1461 H   0  0  0  0  0  0  0  0  0  0  0  0
  1  2  1  0  0  0  0
  1 29  1  0  0  0  0
  1 30  1  0  0  0  0
  2  3  2  0  0  0  0
  2  4  1  0  0  0  0
  4  5  1  0  0  0  0
  4 31  1  0  0  0  0
  4 32  1  0  0  0  0
  5 27  1  0  0  0  0
  5  6  1  0  0  0  0
  6  7  1  0  0  0  0
  6 33  1  0  0  0  0
  6 34  1  0  0  0  0
  7  8  1  0  0  0  0
  7 35  1  0  0  0  0
  7 36  1  0  0  0  0
  8  9  1  0  0  0  0
  8 26  1  0  0  0  0
  9 14  1  0  0  0  0
  9 10  2  0  0  0  0
 10 11  1  0  0  0  0
 11 12  2  0  0  0  0
 11 37  1  0  0  0  0
 12 13  1  0  0  0  0
 13 17  1  0  0  0  0
 13 14  2  0  0  0  0
 14 15  1  0  0  0  0
 15 16  2  0  0  0  0
 16 17  1  0  0  0  0
 16 38  1  0  0  0  0
 17 18  1  0  0  0  0
 18 19  1  0  0  0  0
 18 39  1  0  0  0  0
 18 40  1  0  0  0  0
 19 20  1  0  0  0  0
 19 21  1  0  0  0  0
 19 41  1  0  0  0  0
 20 42  1  0  0  0  0
 21 25  1  0  0  0  0
 21 22  1  0  0  0  0
 21 43  1  0  0  0  0
 22 23  1  0  0  0  0
 22 44  1  0  0  0  0
 22 45  1  0  0  0  0
 23 24  1  0  0  0  0
 23 46  1  0  0  0  0
 23 47  1  0  0  0  0
 24 25  1  0  0  0  0
 24 48  1  0  0  0  0
 24 49  1  0  0  0  0
 26 27  1  0  0  0  0
 26 50  1  0  0  0  0
 26 51  1  0  0  0  0
 27 28  2  0  0  0  0
M  END
> <s_m_source_file>
AV-unprocessed.smi

> <i_m_source_file_index>
174

> <i_lp_mmshare_version>
43012

> <i_f3d_flags>
0

> <s_epik_input>
W05IMl1DKD1PKVtDSDJdTjFbQ0gyXVtDSDJdTihbQ0gyXUMxPU8pYyhuW2NIXW4yKWMoYzIzKW5bY0hdbjNbQ0gyXVtDQEhdKFtPSF0pW0NAQEhdNFtDSDJdW0NIMl1bQ0gyXU80

> <s_epik_cmdline>
J2VwaWtfcHl0aG9uJywgJy1waCcsICc3LjAnLCAnLXRuJywgJzgnLCAnLW1hJywgJzIwMCcsICctbWV0YWxfYmluZGluZycsICctaW1hZScsICc8aW5maWxlLm1hZT4nLCAnLW9tYWUnLCAnPG91dGZpbGUubWFlPic=

> <r_lp_tautomer_probability>
1

> <r_epik_Ionization_Penalty>
0.000250477

> <r_epik_Ionization_Penalty_Charging>
0

> <r_epik_Ionization_Penalty_Neutral>
0.000250477

> <r_epik_State_Penalty>
-0

> <r_epik_Charging_Adjusted_Penalty>
0

> <i_epik_Tot_Q>
0

> <i_epik_Tot_abs_Q>
0

> <r_epik_Metal_State_Penalty>
-0

> <b_epik_Metal_Only>
0

> <s_lp_Force_Field>
OPLS_2005

> <r_lp_Energy>
38.8972

> <b_lp_Chiralities_Consistent>
1

> <s_lp_Variant>
AV-unprocessed.smi:174-1

> <Gold.Version>
5.8.1

> <Gold.Id.Protein>
6NUR|6NUR_protein|mol2

> <Gold.PLP.Fitness>
51.7006

> <Gold.PLP.PLP>
-44.6690

> <Gold.PLP.part.hbond>
-3.2216

> <Gold.PLP.part.metal>
0.0000

> <Gold.PLP.part.buried>
-6.6565

> <Gold.PLP.part.nonpolar>
-35.2386

> <Gold.PLP.part.repulsive>
0.1512

> <Gold.PLP.ligand.clash>
0.0000

> <Gold.PLP.ligand.torsion>
0.9686

> <Gold.PLP.Chemscore.Hbond>
2.8968

> <Gold.PLP.Chemscore.CHOScore>
0.0000

> <Gold.PLP.Chemscore.Metal>
0.0000

> <Gold.Chemscore.Hbonds>
donor molecule, donor type, donor heavy atom, donor atom, acceptor molecule, acceptor atom, score
      L1  H     1    30       P1 10747  0.38
      L1  H    20    42       P1  8028  1.00
      P1  H  6896  6909       L1    10  0.11

> <Gold.PLP.Chemscore.Internal.Correction>
0.2784

> <Gold.Rescore>
     Score         DG    S(hbond)    S(metal)    S(lipo)     H(rot)  DE(clash)    DE(int)     intcor
     12.97     -14.65       2.46        0.00      83.76       3.46       0.06       1.63       ----

> <Gold.Chemscore.Fitness>
12.9654

> <Gold.Chemscore.DG>
-14.6487

> <Gold.Chemscore.ZeroCoef>
-5.4800

> <Gold.Chemscore.Hbond>
2.4623

> <Gold.Chemscore.Metal>
0.0000

> <Gold.Chemscore.Lipo>
83.7598

> <Gold.Chemscore.Internal_Hbond>
0.0000

> <Gold.Chemscore.DEClash>
0.0572

> <Gold.Chemscore.DEInternal>
1.6261

> <Gold.Chemscore.Rot>
3.4591

> <Gold.Chemscore.Internal.Correction>
   9.000000E+99

> <Gold.Chemscore.Hbonds>
donor molecule, donor type, donor heavy atom, donor atom, acceptor molecule, acceptor atom, score
      L1  H     1    30       P1 10747  0.38
      L1  H    20    42       P1  8028  0.99
      P1  H  6896  6909       L1    10  0.01

> <Gold.Chemscore.Hbond.Weighted>
-8.2241

> <Gold.Chemscore.Metal.Weighted>
-0.0000

> <Gold.Chemscore.Lipo.Weighted>
-9.7999

> <Gold.Chemscore.Internal_Hbond.Weighted>
0.0000

> <Gold.Chemscore.DEClash.Weighted>
0.0572

> <Gold.Chemscore.DEInternal.Weighted>
1.6261

> <Gold.Chemscore.Rot.Weighted>
8.8553

> <Gold.Chemscore.Internal.Correction.Weighted>
   9.000000E+99

> <Gold.Protein.RotatedTorsions>
[ 6907 6896 6895 6894 ] final   70.57 input  -60.11 | X-H torsion
[ 7974 7965 7964 7962 ] final -112.96 input  175.53 | X-H torsion
[ 8008 7997 7996 7995 ] final  -89.57 input   59.86 | X-H torsion
[ 10167 10162 10161 10158 ] final  106.06 input  -65.29 | X-H torsion
[ 10718 10713 10712 10709 ] final -171.05 input   66.30 | X-H torsion
[ 10763 10752 10751 10750 ] final -160.11 input  -60.55 | X-H torsion
[ 11005 11000 10999 10996 ] final  175.19 input  -57.11 | X-H torsion

> <Gold.Protein.ActiveResidues>
 VAL166  LYS551  ARG553  GLY616  TRP617  ASP618  TYR619  PRO620  LYS621  CYS622 
 ASP623  PHE694  ASN695  SER759  ASP760  ASP761  ALA762  ILE779  LEU786  VAL792 
 PHE793  MET794  SER795  GLU796  ALA797  LYS798  CYS799  TRP800  GLU811  SER814 

> <Gold.Protein.RotatedAtoms>
  152.4757  134.4848  159.9676 H   0  0  0  0  0  0  0  0  0  0  0  0  # atno 6907 bound_to 6896
  151.4865  133.3528  159.2854 H   0  0  0  0  0  0  0  0  0  0  0  0  # atno 6908 bound_to 6896
  150.8795  134.8210  159.7276 H   0  0  0  0  0  0  0  0  0  0  0  0  # atno 6909 bound_to 6896
  145.1377  140.8760  143.3720 H   0  0  0  0  0  0  0  0  0  0  0  0  # atno 7974 bound_to 7965
  154.6882  140.0540  157.0336 H   0  0  0  0  0  0  0  0  0  0  0  0  # atno 8008 bound_to 7997
  155.0855  140.3214  155.4570 H   0  0  0  0  0  0  0  0  0  0  0  0  # atno 8009 bound_to 7997
  156.2719  140.2057  156.5982 H   0  0  0  0  0  0  0  0  0  0  0  0  # atno 8010 bound_to 7997
  139.7040  144.7089  151.1137 H   0  0  0  0  0  0  0  0  0  0  0  0  # atno 10167 bound_to 10162
  156.7352  130.9321  151.3107 H   0  0  0  0  0  0  0  0  0  0  0  0  # atno 10718 bound_to 10713
  154.7418  135.3070  154.8715 H   0  0  0  0  0  0  0  0  0  0  0  0  # atno 10763 bound_to 10752
  153.9527  135.6762  153.4748 H   0  0  0  0  0  0  0  0  0  0  0  0  # atno 10764 bound_to 10752
  153.1016  135.4909  154.8803 H   0  0  0  0  0  0  0  0  0  0  0  0  # atno 10765 bound_to 10752
  140.3595  134.7125  157.4321 H   0  0  0  0  0  0  0  0  0  0  0  0  # atno 11005 bound_to 11000
  145.0566  139.3138  143.5901 LP  0  0  0  0  0  0  0  0  0  0  0  0  # atno 17320 bound_to 7965
  146.3508  139.9993  142.8677 LP  0  0  0  0  0  0  0  0  0  0  0  0  # atno 17321 bound_to 7965
  140.7717  143.5384  150.9341 LP  0  0  0  0  0  0  0  0  0  0  0  0  # atno 17342 bound_to 10162
  139.9067  143.6770  152.3122 LP  0  0  0  0  0  0  0  0  0  0  0  0  # atno 17343 bound_to 10162
  157.6842  130.9169  150.0344 LP  0  0  0  0  0  0  0  0  0  0  0  0  # atno 17370 bound_to 10713
  156.1502  130.3642  149.9450 LP  0  0  0  0  0  0  0  0  0  0  0  0  # atno 17371 bound_to 10713
  140.0638  134.5958  155.8718 LP  0  0  0  0  0  0  0  0  0  0  0  0  # atno 17394 bound_to 11000
  141.1988  133.6603  156.5812 LP  0  0  0  0  0  0  0  0  0  0  0  0  # atno 17395 bound_to 11000

$$$$
