#       Name:                AV-unprocessed.smi:1811
#       Creating user name   scv26
#       Creation time:       Fri Mar 27 08:59:35 2020


#       File generated by GOLD software.
#

@<TRIPOS>MOLECULE
AV-unprocessed.smi:1811
    49    50     1
SMALL
NO_CHARGES


@<TRIPOS>ATOM
      1 ****        -2.0983   1.9536   3.3968 C.3            1 S1                 0.0000
      2 ****        -2.4350   1.3140   2.0328 C.3            1 S1                 0.0000
      3 ****        -3.9621   1.1260   1.9498 C.3            1 S1                 0.0000
      4 ****        -1.9979   2.2692   0.9017 C.3            1 S1                 0.0000
      5 ****        -1.7705  -0.0828   1.8716 C.3            1 S1                 0.0000
      6 ****        -0.2369  -0.0997   1.9308 C.2            1 S1                 0.0000
      7 ****         0.3280  -0.0849   3.0235 O.2            1 S1                 0.0000
      8 ****         0.3888  -0.1778   0.7423 N.am           1 S1                 0.0000
      9 ****         1.7838  -0.2036   0.4516 C.ar           1 S1                 0.0000
     10 ****         2.7818   0.2195   1.3642 C.ar           1 S1                 0.0000
     11 ****         4.1329   0.1694   0.9748 C.ar           1 S1                 0.0000
     12 ****         4.4415  -0.2950  -0.3161 C.ar           1 S1                 0.0000
     13 ****         3.5043  -0.6868  -1.2027 N.ar           1 S1                 0.0000
     14 ****         2.2018  -0.6384  -0.8326 C.ar           1 S1                 0.0000
     15 ****         1.2474  -1.0378  -1.7835 N.3            1 S1                 0.0000
     16 ****         1.3155  -2.4501  -2.1350 C.3            1 S1                 0.0000
     17 ****         0.1392  -2.8157  -3.0570 C.3            1 S1                 0.0000
     18 ****         0.1472  -1.9673  -4.2022 O.3            1 S1                 0.0000
     19 ****         0.0091  -0.5927  -3.8529 C.3            1 S1                 0.0000
     20 ****         1.1816  -0.1693  -2.9516 C.3            1 S1                 0.0000
     21 ****        -2.6499   2.8827   3.5440 H              1 S1                 0.0000
     22 ****        -1.0393   2.1971   3.4842 H              1 S1                 0.0000
     23 ****        -2.3540   1.2873   4.2213 H              1 S1                 0.0000
     24 ****        -4.3241   0.4652   2.7385 H              1 S1                 0.0000
     25 ****        -4.2587   0.6901   0.9951 H              1 S1                 0.0000
     26 ****        -4.4891   2.0753   2.0524 H              1 S1                 0.0000
     27 ****        -2.5241   3.2224   0.9633 H              1 S1                 0.0000
     28 ****        -2.2065   1.8428  -0.0802 H              1 S1                 0.0000
     29 ****        -0.9309   2.4905   0.9445 H              1 S1                 0.0000
     30 ****        -2.1356  -0.7516   2.6524 H              1 S1                 0.0000
     31 ****        -2.0896  -0.5344   0.9304 H              1 S1                 0.0000
     32 ****        -0.2140  -0.2712  -0.0627 H              1 S1                 0.0000
     33 ****         2.5440   0.5945   2.3469 H              1 S1                 0.0000
     34 ****         4.9145   0.4848   1.6500 H              1 S1                 0.0000
     35 ****         5.4678  -0.3466  -0.6484 H              1 S1                 0.0000
     36 ****         2.2605  -2.6609  -2.6379 H              1 S1                 0.0000
     37 ****         1.2871  -3.0584  -1.2302 H              1 S1                 0.0000
     38 ****         0.2228  -3.8529  -3.3816 H              1 S1                 0.0000
     39 ****        -0.8116  -2.7223  -2.5297 H              1 S1                 0.0000
     40 ****        -0.0017   0.0068  -4.7633 H              1 S1                 0.0000
     41 ****        -0.9458  -0.4288  -3.3508 H              1 S1                 0.0000
     42 ****         1.0576   0.8672  -2.6354 H              1 S1                 0.0000
     43 ****         2.1174  -0.2284  -3.5091 H              1 S1                 0.0000
     44 ****        -0.2116  -0.0620   3.8651 LP             1 S1                 0.0000
     45 ****         1.3269  -0.0958   3.0702 LP             1 S1                 0.0000
     46 ****         3.7649  -1.0062  -2.1138 LP             1 S1                 0.0000
     47 ****         0.3726  -0.9234  -1.3129 LP             1 S1                 0.0000
     48 ****        -0.6116  -2.2258  -4.8001 LP             1 S1                 0.0000
     49 ****         1.0120  -2.0909  -4.6888 LP             1 S1                 0.0000
@<TRIPOS>BOND
    1    1    2 1     
    2    1   21 1     
    3    1   22 1     
    4    1   23 1     
    5    2    3 1     
    6    2    4 1     
    7    2    5 1     
    8    3   24 1     
    9    3   25 1     
   10    3   26 1     
   11    4   27 1     
   12    4   28 1     
   13    4   29 1     
   14    5    6 1     
   15    5   30 1     
   16    5   31 1     
   17    6    7 2     
   18    6    8 am    
   19    8    9 1     
   20    8   32 1     
   21    9   14 ar    
   22    9   10 ar    
   23   10   11 ar    
   24   10   33 1     
   25   11   12 ar    
   26   11   34 1     
   27   12   13 ar    
   28   12   35 1     
   29   13   14 ar    
   30   14   15 1     
   31   15   20 1     
   32   15   16 1     
   33   16   17 1     
   34   16   36 1     
   35   16   37 1     
   36   17   18 1     
   37   17   38 1     
   38   17   39 1     
   39   18   19 1     
   40   19   20 1     
   41   19   40 1     
   42   19   41 1     
   43   20   42 1     
   44   20   43 1     
   45    7   44 1     
   46    7   45 1     
   47   13   46 1     
   48   15   47 1     
   49   18   48 1     
   50   18   49 1     
@<TRIPOS>SUBSTRUCTURE
      1 S1             1
@<TRIPOS>SET
LONE_PAIRS      STATIC     ATOMS    <user>   **** ""
6 44 45 46 47 48 49
DONOR_HYDROGENS      STATIC     ATOMS    <user>   **** ""
1 32
ATOM$BLUE        STATIC     ATOMS    COLORGROUP SYSTEM
6 44 45 46 47 48 49
ATOM$RED        STATIC     ATOMS    COLORGROUP SYSTEM
1 32
