AV-unprocessed.smi:3032|AV-procd|sdf|11571|dock8
  -GOLD-   2272016533D 1   1.00000     0.00000
 Structure written by MMmdl.
 36 37  0  0  0  0  0  0  0  0  2 V2000
  152.0760  144.3710  158.0163 C   0  0  0  0  0  0  0  0  0  0  0  0
  152.0728  143.5143  159.2906 C   0  0  2  0  0  0  0  0  0  0  0  0
  152.4527  144.3471  160.5302 C   0  0  0  0  0  0  0  0  0  0  0  0
  152.4577  143.4896  161.8056 C   0  0  0  0  0  0  0  0  0  0  0  0
  153.3903  142.2776  161.6573 C   0  0  0  0  0  0  0  0  0  0  0  0
  153.0096  141.4269  160.4280 C   0  0  2  0  0  0  0  0  0  0  0  0
  153.9593  140.2309  160.2779 C   0  0  0  0  0  0  0  0  0  0  0  0
  154.6116  140.0810  159.2437 O   0  0  0  0  0  0  0  0  0  0  0  0
  154.0305  139.3896  161.3200 N   0  0  0  0  0  0  0  0  0  0  0  0
  154.9140  138.2312  161.4030 C   0  0  0  0  0  0  0  0  0  0  0  0
  154.1490  136.9300  161.7077 C   0  0  0  0  0  0  0  0  0  0  0  0
  154.8924  135.6829  161.2715 C   0  0  0  0  0  0  0  0  0  0  0  0
  154.4661  134.8011  160.3439 N   0  5  0  0  0  0  0  0  0  0  0  0
  155.3298  133.8114  160.2273 N   0  0  0  0  0  0  0  0  0  0  0  0
  156.2883  134.1077  161.1127 C   0  0  0  0  0  0  0  0  0  0  0  0
  156.0457  135.2453  161.7722 N   0  0  0  0  0  0  0  0  0  0  0  0
  153.0085  142.2969  159.1522 C   0  0  0  0  0  0  0  0  0  0  0  0
  153.0702  144.7676  157.8077 H   0  0  0  0  0  0  0  0  0  0  0  0
  151.3926  145.2156  158.1086 H   0  0  0  0  0  0  0  0  0  0  0  0
  151.7621  143.7872  157.1502 H   0  0  0  0  0  0  0  0  0  0  0  0
  151.0570  143.1429  159.4339 H   0  0  0  0  0  0  0  0  0  0  0  0
  153.4389  144.7916  160.3883 H   0  0  0  0  0  0  0  0  0  0  0  0
  151.7553  145.1766  160.6517 H   0  0  0  0  0  0  0  0  0  0  0  0
  152.7677  144.0939  162.6585 H   0  0  0  0  0  0  0  0  0  0  0  0
  151.4447  143.1473  162.0210 H   0  0  0  0  0  0  0  0  0  0  0  0
  154.4209  142.6262  161.5703 H   0  0  0  0  0  0  0  0  0  0  0  0
  153.3454  141.6702  162.5626 H   0  0  0  0  0  0  0  0  0  0  0  0
  151.9981  141.0449  160.5796 H   0  0  0  0  0  0  0  0  0  0  0  0
  153.4728  139.5951  162.1363 H   0  0  0  0  0  0  0  0  0  0  0  0
  155.4259  138.1352  160.4451 H   0  0  0  0  0  0  0  0  0  0  0  0
  155.6900  138.3988  162.1513 H   0  0  0  0  0  0  0  0  0  0  0  0
  153.9509  136.8609  162.7775 H   0  0  0  0  0  0  0  0  0  0  0  0
  153.1760  136.9443  161.2153 H   0  0  0  0  0  0  0  0  0  0  0  0
  157.1631  133.4914  161.2787 H   0  0  0  0  0  0  0  0  0  0  0  0
  152.6995  141.6944  158.2966 H   0  0  0  0  0  0  0  0  0  0  0  0
  154.0206  142.6428  158.9341 H   0  0  0  0  0  0  0  0  0  0  0  0
  1  2  1  0  0  0  0
  1 18  1  0  0  0  0
  1 19  1  0  0  0  0
  1 20  1  0  0  0  0
  2 17  1  0  0  0  0
  2  3  1  0  0  0  0
  2 21  1  0  0  0  0
  3  4  1  0  0  0  0
  3 22  1  0  0  0  0
  3 23  1  0  0  0  0
  4  5  1  0  0  0  0
  4 24  1  0  0  0  0
  4 25  1  0  0  0  0
  5  6  1  0  0  0  0
  5 26  1  0  0  0  0
  5 27  1  0  0  0  0
  6  7  1  0  0  0  0
  6 17  1  0  0  0  0
  6 28  1  0  0  0  0
  7  8  2  0  0  0  0
  7  9  1  0  0  0  0
  9 10  1  0  0  0  0
  9 29  1  0  0  0  0
 10 11  1  0  0  0  0
 10 30  1  0  0  0  0
 10 31  1  0  0  0  0
 11 32  1  0  0  0  0
 11 33  1  0  0  0  0
 11 12  1  0  0  0  0
 12 16  2  0  0  0  0
 12 13  1  0  0  0  0
 13 14  1  0  0  0  0
 14 15  2  0  0  0  0
 15 16  1  0  0  0  0
 15 34  1  0  0  0  0
 17 35  1  0  0  0  0
 17 36  1  0  0  0  0
M  CHG  1  13  -1
M  END
> <s_m_source_file>
AV-unprocessed.smi

> <i_m_source_file_index>
3032

> <i_lp_mmshare_version>
43012

> <i_f3d_flags>
0

> <s_epik_input>
W0NIM11bQ0BASF0xW0NIMl1bQ0gyXVtDSDJdW0NASF0oW0NIMl0xKUMoPU8pW05IXVtDSDJdW0NIMl1jMm5uW2NIXVtuSF0y

> <s_epik_cmdline>
J2VwaWtfcHl0aG9uJywgJy1waCcsICc3LjAnLCAnLXRuJywgJzgnLCAnLW1hJywgJzIwMCcsICctbWV0YWxfYmluZGluZycsICctaW1hZScsICc8aW5maWxlLm1hZT4nLCAnLW9tYWUnLCAnPG91dGZpbGUubWFlPic=

> <r_lp_tautomer_probability>
0.948284

> <r_epik_Ionization_Penalty>
12.042

> <r_epik_Ionization_Penalty_Charging>
12.042

> <r_epik_Ionization_Penalty_Neutral>
4.36781e-08

> <r_epik_State_Penalty>
4.67286

> <r_epik_Charging_Adjusted_Penalty>
16.7149

> <i_epik_Tot_Q>
-1

> <i_epik_Tot_abs_Q>
1

> <r_epik_Metal_State_Penalty>
0.981637

> <b_epik_Metal_Only>
1

> <s_lp_Force_Field>
OPLS_2005

> <r_lp_Energy>
10.3443

> <b_lp_Chiralities_Consistent>
1

> <s_lp_Variant>
AV-unprocessed.smi:3032-15

> <Gold.Version>
5.8.1

> <Gold.Id.Protein>
6NUR|6NUR_protein|mol2

> <Gold.PLP.Fitness>
44.6057

> <Gold.PLP.PLP>
-36.0158

> <Gold.PLP.part.hbond>
-2.0000

> <Gold.PLP.part.metal>
0.0000

> <Gold.PLP.part.buried>
-3.4929

> <Gold.PLP.part.nonpolar>
-29.8105

> <Gold.PLP.part.repulsive>
0.0219

> <Gold.PLP.ligand.clash>
0.0000

> <Gold.PLP.ligand.torsion>
0.1559

> <Gold.PLP.Chemscore.Hbond>
2.9600

> <Gold.PLP.Chemscore.CHOScore>
0.0000

> <Gold.PLP.Chemscore.Metal>
0.0000

> <Gold.Chemscore.Hbonds>
donor molecule, donor type, donor heavy atom, donor atom, acceptor molecule, acceptor atom, score
      P1  H  6896  6908       L1    13  2.00
      P1  H  7997  8010       L1     8  0.96

> <Gold.PLP.Chemscore.Internal.Correction>
0.0217

> <Gold.Rescore>
     Score         DG    S(hbond)    S(metal)    S(lipo)     H(rot)  DE(clash)    DE(int)     intcor
     17.23     -17.43       1.93        0.00      95.35       2.21       0.01       0.19       ----

> <Gold.Chemscore.Fitness>
17.2280

> <Gold.Chemscore.DG>
-17.4263

> <Gold.Chemscore.ZeroCoef>
-5.4800

> <Gold.Chemscore.Hbond>
1.9341

> <Gold.Chemscore.Metal>
0.0000

> <Gold.Chemscore.Lipo>
95.3550

> <Gold.Chemscore.Internal_Hbond>
0.0000

> <Gold.Chemscore.DEClash>
0.0060

> <Gold.Chemscore.DEInternal>
0.1923

> <Gold.Chemscore.Rot>
2.2149

> <Gold.Chemscore.Internal.Correction>
   9.000000E+99

> <Gold.Chemscore.Hbonds>
donor molecule, donor type, donor heavy atom, donor atom, acceptor molecule, acceptor atom, score
      P1  H  6896  6908       L1    13  0.91
      P1  H  7997  8010       L1     8  0.90

> <Gold.Chemscore.Hbond.Weighted>
-6.4600

> <Gold.Chemscore.Metal.Weighted>
-0.0000

> <Gold.Chemscore.Lipo.Weighted>
-11.1565

> <Gold.Chemscore.Internal_Hbond.Weighted>
0.0000

> <Gold.Chemscore.DEClash.Weighted>
0.0060

> <Gold.Chemscore.DEInternal.Weighted>
0.1923

> <Gold.Chemscore.Rot.Weighted>
5.6702

> <Gold.Chemscore.Internal.Correction.Weighted>
   9.000000E+99

> <Gold.Protein.RotatedTorsions>
[ 6907 6896 6895 6894 ] final  -56.38 input  -60.11 | X-H torsion
[ 7974 7965 7964 7962 ] final   75.94 input  175.53 | X-H torsion
[ 8008 7997 7996 7995 ] final   -7.11 input   59.86 | X-H torsion
[ 10167 10162 10161 10158 ] final  -94.93 input  -65.29 | X-H torsion
[ 10718 10713 10712 10709 ] final  -93.07 input   66.30 | X-H torsion
[ 10763 10752 10751 10750 ] final -174.14 input  -60.55 | X-H torsion
[ 11005 11000 10999 10996 ] final -126.02 input  -57.11 | X-H torsion

> <Gold.Protein.ActiveResidues>
 VAL166  LYS551  ARG553  GLY616  TRP617  ASP618  TYR619  PRO620  LYS621  CYS622 
 ASP623  PHE694  ASN695  SER759  ASP760  ASP761  ALA762  ILE779  LEU786  VAL792 
 PHE793  MET794  SER795  GLU796  ALA797  LYS798  CYS799  TRP800  GLU811  SER814 

> <Gold.Protein.RotatedAtoms>
  150.8172  134.7361  159.6740 H   0  0  0  0  0  0  0  0  0  0  0  0  # atno 6907 bound_to 6896
  152.4290  134.5810  159.9957 H   0  0  0  0  0  0  0  0  0  0  0  0  # atno 6908 bound_to 6896
  151.6003  133.3320  159.3082 H   0  0  0  0  0  0  0  0  0  0  0  0  # atno 6909 bound_to 6896
  145.7091  139.2608  143.1661 H   0  0  0  0  0  0  0  0  0  0  0  0  # atno 7974 bound_to 7965
  154.5870  140.2415  155.7973 H   0  0  0  0  0  0  0  0  0  0  0  0  # atno 8008 bound_to 7997
  156.2221  140.2994  155.9931 H   0  0  0  0  0  0  0  0  0  0  0  0  # atno 8009 bound_to 7997
  155.2440  140.0408  157.2969 H   0  0  0  0  0  0  0  0  0  0  0  0  # atno 8010 bound_to 7997
  140.3094  143.3114  152.0164 H   0  0  0  0  0  0  0  0  0  0  0  0  # atno 10167 bound_to 10162
  156.0009  130.5012  150.5721 H   0  0  0  0  0  0  0  0  0  0  0  0  # atno 10718 bound_to 10713
  154.5997  135.2853  155.0548 H   0  0  0  0  0  0  0  0  0  0  0  0  # atno 10763 bound_to 10752
  154.1818  135.6455  153.5040 H   0  0  0  0  0  0  0  0  0  0  0  0  # atno 10764 bound_to 10752
  153.0152  135.5425  154.6712 H   0  0  0  0  0  0  0  0  0  0  0  0  # atno 10765 bound_to 10752
  140.9715  134.0799  157.3864 H   0  0  0  0  0  0  0  0  0  0  0  0  # atno 11005 bound_to 11000
  146.0728  140.7850  142.9679 LP  0  0  0  0  0  0  0  0  0  0  0  0  # atno 17320 bound_to 7965
  144.6947  140.3369  143.7206 LP  0  0  0  0  0  0  0  0  0  0  0  0  # atno 17321 bound_to 7965
  139.4897  144.6396  151.6905 LP  0  0  0  0  0  0  0  0  0  0  0  0  # atno 17342 bound_to 10162
  140.5581  144.0314  150.6157 LP  0  0  0  0  0  0  0  0  0  0  0  0  # atno 17343 bound_to 10162
  157.3615  131.0750  151.1633 LP  0  0  0  0  0  0  0  0  0  0  0  0  # atno 17370 bound_to 10713
  157.2416  130.6572  149.5892 LP  0  0  0  0  0  0  0  0  0  0  0  0  # atno 17371 bound_to 10713
  139.8914  135.0118  156.6789 LP  0  0  0  0  0  0  0  0  0  0  0  0  # atno 17394 bound_to 11000
  140.7322  133.9049  155.8219 LP  0  0  0  0  0  0  0  0  0  0  0  0  # atno 17395 bound_to 11000

$$$$
