AV-unprocessed.smi:221|AV-procd|sdf|1690|dock6
  -GOLD-   2262020133D 1   1.00000     0.00000
 Structure written by MMmdl.
 50 53  0  0  0  0  0  0  0  0  1 V2000
  146.1114  137.0172  151.5619 N   0  0  0  0  0  0  0  0  0  0  0  0
  145.1560  136.0886  151.6482 C   0  0  0  0  0  0  0  0  0  0  0  0
  144.0125  136.3594  152.0111 O   0  0  0  0  0  0  0  0  0  0  0  0
  145.5452  134.6575  151.2503 C   0  0  2  0  0  0  0  0  0  0  0  0
  144.6084  134.0884  150.1763 C   0  0  0  0  0  0  0  0  0  0  0  0
  144.7474  132.5813  150.3590 C   0  0  1  0  0  0  0  0  0  0  0  0
  145.8431  132.1545  149.7291 F   0  0  0  0  0  0  0  0  0  0  0  0
  144.9314  132.4261  151.8704 C   0  0  0  0  0  0  0  0  0  0  0  0
  145.4146  133.7137  152.3627 N   0  0  0  0  0  0  0  0  0  0  0  0
  146.4597  133.6583  153.2175 C   0  0  0  0  0  0  0  0  0  0  0  0
  147.5589  132.9793  152.8091 N   0  0  0  0  0  0  0  0  0  0  0  0
  148.6240  132.8893  153.6118 C   0  0  0  0  0  0  0  0  0  0  0  0
  148.7931  133.3958  154.8355 N   0  0  0  0  0  0  0  0  0  0  0  0
  147.6868  134.0793  155.2474 C   0  0  0  0  0  0  0  0  0  0  0  0
  146.4848  134.2585  154.5076 C   0  0  0  0  0  0  0  0  0  0  0  0
  145.5779  135.0075  155.2478 N   0  0  0  0  0  0  0  0  0  0  0  0
  146.2081  135.2571  156.3630 C   0  0  0  0  0  0  0  0  0  0  0  0
  147.4779  134.7332  156.4493 N   0  0  0  0  0  0  0  0  0  0  0  0
  148.3894  134.8601  157.5731 C   0  0  0  0  0  0  0  0  0  0  0  0
  147.8069  134.2976  158.8934 C   0  0  1  0  0  0  0  0  0  0  0  0
  148.1896  132.8159  159.1275 C   0  0  0  0  0  0  0  0  0  0  0  0
  149.4901  132.5360  158.6515 O   0  0  0  0  0  0  0  0  0  0  0  0
  148.1634  135.1985  160.1032 C   0  0  2  0  0  0  0  0  0  0  0  0
  147.4592  134.8388  161.3998 C   0  0  0  0  0  0  0  0  0  0  0  0
  147.6209  136.1145  162.2186 C   0  0  0  0  0  0  0  0  0  0  0  0
  147.6014  137.1797  161.2755 O   0  0  0  0  0  0  0  0  0  0  0  0
  147.7393  136.6639  159.9550 C   0  0  0  0  0  0  0  0  0  0  0  0
  146.5692  134.6512  150.8719 H   0  0  0  0  0  0  0  0  0  0  0  0
  143.9020  132.0158  149.9667 H   0  0  0  0  0  0  0  0  0  0  0  0
  145.9040  137.9728  151.8136 H   0  0  0  0  0  0  0  0  0  0  0  0
  147.0363  136.7624  151.2470 H   0  0  0  0  0  0  0  0  0  0  0  0
  143.5743  134.3825  150.3653 H   0  0  0  0  0  0  0  0  0  0  0  0
  144.8705  134.4157  149.1697 H   0  0  0  0  0  0  0  0  0  0  0  0
  143.9679  132.2363  152.3445 H   0  0  0  0  0  0  0  0  0  0  0  0
  145.5815  131.5841  152.1155 H   0  0  0  0  0  0  0  0  0  0  0  0
  149.4603  132.3320  153.2166 H   0  0  0  0  0  0  0  0  0  0  0  0
  145.7599  135.8313  157.1608 H   0  0  0  0  0  0  0  0  0  0  0  0
  149.3248  134.3572  157.3256 H   0  0  0  0  0  0  0  0  0  0  0  0
  148.6302  135.9178  157.6788 H   0  0  0  0  0  0  0  0  0  0  0  0
  146.7209  134.3185  158.7907 H   0  0  0  0  0  0  0  0  0  0  0  0
  148.1457  132.5658  160.1874 H   0  0  0  0  0  0  0  0  0  0  0  0
  147.4848  132.1464  158.6344 H   0  0  0  0  0  0  0  0  0  0  0  0
  149.4534  131.7597  158.1137 H   0  0  0  0  0  0  0  0  0  0  0  0
  149.2403  135.1690  160.2771 H   0  0  0  0  0  0  0  0  0  0  0  0
  146.4015  134.6418  161.2192 H   0  0  0  0  0  0  0  0  0  0  0  0
  147.8893  133.9693  161.8975 H   0  0  0  0  0  0  0  0  0  0  0  0
  146.8399  136.2308  162.9700 H   0  0  0  0  0  0  0  0  0  0  0  0
  148.5853  136.1191  162.7278 H   0  0  0  0  0  0  0  0  0  0  0  0
  148.4577  137.2495  159.3810 H   0  0  0  0  0  0  0  0  0  0  0  0
  146.7712  136.7394  159.4581 H   0  0  0  0  0  0  0  0  0  0  0  0
  1  2  1  0  0  0  0
  1 30  1  0  0  0  0
  1 31  1  0  0  0  0
  2  3  2  0  0  0  0
  2  4  1  0  0  0  0
  4 28  1  0  0  0  0
  4  9  1  0  0  0  0
  4  5  1  0  0  0  0
  5  6  1  0  0  0  0
  5 32  1  0  0  0  0
  5 33  1  0  0  0  0
  6 29  1  0  0  0  0
  6  7  1  0  0  0  0
  6  8  1  0  0  0  0
  8  9  1  0  0  0  0
  8 34  1  0  0  0  0
  8 35  1  0  0  0  0
  9 10  1  0  0  0  0
 10 15  1  0  0  0  0
 10 11  2  0  0  0  0
 11 12  1  0  0  0  0
 12 13  2  0  0  0  0
 12 36  1  0  0  0  0
 13 14  1  0  0  0  0
 14 18  1  0  0  0  0
 14 15  2  0  0  0  0
 15 16  1  0  0  0  0
 16 17  2  0  0  0  0
 17 18  1  0  0  0  0
 17 37  1  0  0  0  0
 18 19  1  0  0  0  0
 19 20  1  0  0  0  0
 19 38  1  0  0  0  0
 19 39  1  0  0  0  0
 20 21  1  0  0  0  0
 20 23  1  0  0  0  0
 20 40  1  0  0  0  0
 21 22  1  0  0  0  0
 21 41  1  0  0  0  0
 21 42  1  0  0  0  0
 22 43  1  0  0  0  0
 23 27  1  0  0  0  0
 23 24  1  0  0  0  0
 23 44  1  0  0  0  0
 24 25  1  0  0  0  0
 24 45  1  0  0  0  0
 24 46  1  0  0  0  0
 25 26  1  0  0  0  0
 25 47  1  0  0  0  0
 25 48  1  0  0  0  0
 26 27  1  0  0  0  0
 27 49  1  0  0  0  0
 27 50  1  0  0  0  0
M  END
> <s_m_source_file>
AV-unprocessed.smi

> <i_m_source_file_index>
221

> <i_lp_mmshare_version>
43012

> <i_f3d_flags>
0

> <s_epik_input>
W05IMl1DKD1PKVtDQEBIXTFbQ0gyXVtDQEBIXShGKVtDSDJdTjFjKG5bY0hdbjIpYyhjMjMpbltjSF1uM1tDSDJdW0NASF0oW0NIMl1bT0hdKVtDQEBIXTRbQ0gyXVtDSDJdT1tDSDJdNA==

> <s_epik_cmdline>
J2VwaWtfcHl0aG9uJywgJy1waCcsICc3LjAnLCAnLXRuJywgJzgnLCAnLW1hJywgJzIwMCcsICctbWV0YWxfYmluZGluZycsICctaW1hZScsICc8aW5maWxlLm1hZT4nLCAnLW9tYWUnLCAnPG91dGZpbGUubWFlPic=

> <r_lp_tautomer_probability>
1

> <r_epik_Ionization_Penalty>
0.000818822

> <r_epik_Ionization_Penalty_Charging>
0

> <r_epik_Ionization_Penalty_Neutral>
0.000818822

> <r_epik_State_Penalty>
0.000440551

> <r_epik_Charging_Adjusted_Penalty>
0.000440551

> <i_epik_Tot_Q>
0

> <i_epik_Tot_abs_Q>
0

> <r_epik_Metal_State_Penalty>
-0

> <b_epik_Metal_Only>
0

> <s_lp_Force_Field>
OPLS_2005

> <r_lp_Energy>
51.1408

> <b_lp_Chiralities_Consistent>
1

> <s_lp_Variant>
AV-unprocessed.smi:221-5

> <Gold.Version>
5.8.1

> <Gold.Id.Protein>
6NUR|6NUR_protein|mol2

> <Gold.PLP.Fitness>
47.1511

> <Gold.PLP.PLP>
-37.8229

> <Gold.PLP.part.hbond>
-4.1520

> <Gold.PLP.part.metal>
0.0000

> <Gold.PLP.part.buried>
-6.9193

> <Gold.PLP.part.nonpolar>
-27.5318

> <Gold.PLP.part.repulsive>
0.5613

> <Gold.PLP.ligand.clash>
0.0000

> <Gold.PLP.ligand.torsion>
1.1728

> <Gold.PLP.Chemscore.Hbond>
3.7600

> <Gold.PLP.Chemscore.CHOScore>
0.0000

> <Gold.PLP.Chemscore.Metal>
0.0000

> <Gold.Chemscore.Hbonds>
donor molecule, donor type, donor heavy atom, donor atom, acceptor molecule, acceptor atom, score
      L1  H     1    31       P1  7948  0.90
      P1  H  6896  6908       L1    22  1.00
      P1  H  6931  6943       L1    26  0.94
      P1  H  6934  6947       L1    26  0.88

> <Gold.PLP.Chemscore.Internal.Correction>
0.3938

> <Gold.Rescore>
     Score         DG    S(hbond)    S(metal)    S(lipo)     H(rot)  DE(clash)    DE(int)     intcor
     11.36     -12.83       2.85        0.00      62.87       3.72       0.08       1.39       ----

> <Gold.Chemscore.Fitness>
11.3578

> <Gold.Chemscore.DG>
-12.8289

> <Gold.Chemscore.ZeroCoef>
-5.4800

> <Gold.Chemscore.Hbond>
2.8494

> <Gold.Chemscore.Metal>
0.0000

> <Gold.Chemscore.Lipo>
62.8681

> <Gold.Chemscore.Internal_Hbond>
0.0000

> <Gold.Chemscore.DEClash>
0.0778

> <Gold.Chemscore.DEInternal>
1.3933

> <Gold.Chemscore.Rot>
3.7202

> <Gold.Chemscore.Internal.Correction>
   9.000000E+99

> <Gold.Chemscore.Hbonds>
donor molecule, donor type, donor heavy atom, donor atom, acceptor molecule, acceptor atom, score
      L1  H     1    31       P1  7948  0.82
      P1  H  6896  6908       L1    22  0.95
      P1  H  6931  6943       L1    26  0.25
      P1  H  6934  6947       L1    26  0.30

> <Gold.Chemscore.Hbond.Weighted>
-9.5170

> <Gold.Chemscore.Metal.Weighted>
-0.0000

> <Gold.Chemscore.Lipo.Weighted>
-7.3556

> <Gold.Chemscore.Internal_Hbond.Weighted>
0.0000

> <Gold.Chemscore.DEClash.Weighted>
0.0778

> <Gold.Chemscore.DEInternal.Weighted>
1.3933

> <Gold.Chemscore.Rot.Weighted>
9.5237

> <Gold.Chemscore.Internal.Correction.Weighted>
   9.000000E+99

> <Gold.Protein.RotatedTorsions>
[ 6907 6896 6895 6894 ] final  104.15 input  -60.11 | X-H torsion
[ 7974 7965 7964 7962 ] final  178.90 input  175.53 | X-H torsion
[ 8008 7997 7996 7995 ] final  126.98 input   59.86 | X-H torsion
[ 10167 10162 10161 10158 ] final   36.58 input  -65.29 | X-H torsion
[ 10718 10713 10712 10709 ] final  111.79 input   66.30 | X-H torsion
[ 10763 10752 10751 10750 ] final -155.66 input  -60.55 | X-H torsion
[ 11005 11000 10999 10996 ] final   85.39 input  -57.11 | X-H torsion

> <Gold.Protein.ActiveResidues>
 VAL166  LYS551  ARG553  GLY616  TRP617  ASP618  TYR619  PRO620  LYS621  CYS622 
 ASP623  PHE694  ASN695  SER759  ASP760  ASP761  ALA762  ILE779  LEU786  VAL792 
 PHE793  MET794  SER795  GLU796  ALA797  LYS798  CYS799  TRP800  GLU811  SER814 

> <Gold.Protein.RotatedAtoms>
  152.5273  133.9719  159.7765 H   0  0  0  0  0  0  0  0  0  0  0  0  # atno 6907 bound_to 6896
  150.9989  133.6067  159.2705 H   0  0  0  0  0  0  0  0  0  0  0  0  # atno 6908 bound_to 6896
  151.3184  135.0818  159.9350 H   0  0  0  0  0  0  0  0  0  0  0  0  # atno 6909 bound_to 6896
  144.7151  140.0467  143.6436 H   0  0  0  0  0  0  0  0  0  0  0  0  # atno 7974 bound_to 7965
  156.2878  140.2680  156.2198 H   0  0  0  0  0  0  0  0  0  0  0  0  # atno 8008 bound_to 7997
  155.0179  140.0387  157.2444 H   0  0  0  0  0  0  0  0  0  0  0  0  # atno 8009 bound_to 7997
  154.7461  140.2734  155.6337 H   0  0  0  0  0  0  0  0  0  0  0  0  # atno 8010 bound_to 7997
  140.4114  144.1587  150.6140 H   0  0  0  0  0  0  0  0  0  0  0  0  # atno 10167 bound_to 10162
  157.6427  131.0956  150.6800 H   0  0  0  0  0  0  0  0  0  0  0  0  # atno 10718 bound_to 10713
  154.7771  135.3163  154.8069 H   0  0  0  0  0  0  0  0  0  0  0  0  # atno 10763 bound_to 10752
  153.8790  135.6837  153.4772 H   0  0  0  0  0  0  0  0  0  0  0  0  # atno 10764 bound_to 10752
  153.1397  135.4744  154.9413 H   0  0  0  0  0  0  0  0  0  0  0  0  # atno 10765 bound_to 10752
  139.8973  134.8283  156.2576 H   0  0  0  0  0  0  0  0  0  0  0  0  # atno 11005 bound_to 11000
  145.9978  139.3066  143.0946 LP  0  0  0  0  0  0  0  0  0  0  0  0  # atno 17320 bound_to 7965
  145.8828  140.9352  143.0592 LP  0  0  0  0  0  0  0  0  0  0  0  0  # atno 17321 bound_to 7965
  140.4633  143.2440  151.9189 LP  0  0  0  0  0  0  0  0  0  0  0  0  # atno 17342 bound_to 10162
  139.4782  144.5445  151.8479 LP  0  0  0  0  0  0  0  0  0  0  0  0  # atno 17343 bound_to 10162
  156.7121  130.4655  149.5544 LP  0  0  0  0  0  0  0  0  0  0  0  0  # atno 17370 bound_to 10713
  156.1723  130.6445  151.0852 LP  0  0  0  0  0  0  0  0  0  0  0  0  # atno 17371 bound_to 10713
  141.0183  133.7056  156.1226 LP  0  0  0  0  0  0  0  0  0  0  0  0  # atno 17394 bound_to 11000
  140.7270  134.4297  157.5569 LP  0  0  0  0  0  0  0  0  0  0  0  0  # atno 17395 bound_to 11000

$$$$
