#       Name:                AV-unprocessed.smi:1550
#       Creating user name   scv26
#       Creation time:       Fri Mar 27 06:40:57 2020


#       File generated by GOLD software.
#

@<TRIPOS>MOLECULE
AV-unprocessed.smi:1550
    51    52     1
SMALL
NO_CHARGES


@<TRIPOS>ATOM
      1 ****        -1.6033  -2.4536   1.8862 C.3            1 S1                 0.0000
      2 ****        -1.1560  -1.6996   0.6251 C.3            1 S1                 0.0000
      3 ****         0.2679  -1.7222   0.5939 O.3            1 S1                 0.0000
      4 ****         0.8562  -1.3730  -0.6549 C.3            1 S1                 0.0000
      5 ****         2.3852  -1.4503  -0.5460 C.3            1 S1                 0.0000
      6 ****         2.9579  -0.5547   0.5710 C.3            1 S1                 0.0000
      7 ****         4.4794  -0.7172   0.6582 C.3            1 S1                 0.0000
      8 ****         4.8325  -2.2032   0.7878 C.3            1 S1                 0.0000
      9 ****         4.1723  -3.0124  -0.3407 C.3            1 S1                 0.0000
     10 ****         2.7623  -2.8089  -0.3322 O.3            1 S1                 0.0000
     11 ****        -1.6633  -0.2482   0.6271 C.2            1 S1                 0.0000
     12 ****        -1.4733   0.4551   1.6189 O.2            1 S1                 0.0000
     13 ****        -2.2872   0.1418  -0.5020 N.am           1 S1                 0.0000
     14 ****        -2.8463   1.3843  -0.8498 C.2            1 S1                 0.0000
     15 ****        -2.7531   2.5248  -0.1102 C.2            1 S1                 0.0000
     16 ****        -3.3586   3.7815  -0.5337 C.2            1 S1                 0.0000
     17 ****        -3.2112   5.0872   0.2277 C.3            1 S1                 0.0000
     18 ****        -3.1425   6.1245  -0.6070 F              1 S1                 0.0000
     19 ****        -4.2613   5.2667   1.0277 F              1 S1                 0.0000
     20 ****        -2.1113   5.0802   0.9810 F              1 S1                 0.0000
     21 ****        -3.9917   3.6730  -1.7566 C.2            1 S1                 0.0000
     22 ****        -4.1376   2.5859  -2.5451 N.pl3          1 S1                -1.0000
     23 ****        -3.5762   1.4138  -2.1349 C.2            1 S1                 0.0000
     24 ****        -3.6655   0.3873  -2.8098 O.2            1 S1                 0.0000
     25 ****        -2.6897  -2.4546   1.9826 H              1 S1                 0.0000
     26 ****        -1.1861  -2.0090   2.7907 H              1 S1                 0.0000
     27 ****        -1.2752  -3.4926   1.8504 H              1 S1                 0.0000
     28 ****        -1.5474  -2.2308  -0.2449 H              1 S1                 0.0000
     29 ****         0.5032  -2.0470  -1.4367 H              1 S1                 0.0000
     30 ****         0.5724  -0.3617  -0.9473 H              1 S1                 0.0000
     31 ****         2.8006  -1.1308  -1.5034 H              1 S1                 0.0000
     32 ****         2.7014   0.4894   0.3886 H              1 S1                 0.0000
     33 ****         2.5126  -0.8222   1.5301 H              1 S1                 0.0000
     34 ****         4.9453  -0.3052  -0.2378 H              1 S1                 0.0000
     35 ****         4.8749  -0.1557   1.5051 H              1 S1                 0.0000
     36 ****         5.9144  -2.3371   0.7650 H              1 S1                 0.0000
     37 ****         4.4905  -2.5788   1.7530 H              1 S1                 0.0000
     38 ****         4.5834  -2.7313  -1.3115 H              1 S1                 0.0000
     39 ****         4.3746  -4.0750  -0.2064 H              1 S1                 0.0000
     40 ****        -2.3846  -0.5643  -1.2173 H              1 S1                 0.0000
     41 ****        -2.2185   2.5430   0.8240 H              1 S1                 0.0000
     42 ****        -4.4469   4.6008  -2.1645 H              1 S1                 0.0000
     43 ****         0.5671  -2.6472   0.8282 LP             1 S1                 0.0000
     44 ****         0.6020  -1.0792   1.2830 LP             1 S1                 0.0000
     45 ****         2.3569  -3.3680  -1.0554 LP             1 S1                 0.0000
     46 ****         2.4051  -3.1012   0.5549 LP             1 S1                 0.0000
     47 ****        -0.9933   0.0812   2.4125 LP             1 S1                 0.0000
     48 ****        -1.7989   1.4005   1.6312 LP             1 S1                 0.0000
     49 ****        -4.6436   2.6397  -3.4060 LP             1 S1                 0.0000
     50 ****        -3.2453  -0.4610  -2.4877 LP             1 S1                 0.0000
     51 ****        -4.1582   0.4022  -3.6799 LP             1 S1                 0.0000
@<TRIPOS>BOND
    1    1    2 1     
    2    1   25 1     
    3    1   26 1     
    4    1   27 1     
    5    2    3 1     
    6    2   11 1     
    7    2   28 1     
    8    3    4 1     
    9    4    5 1     
   10    4   29 1     
   11    4   30 1     
   12    5   10 1     
   13    5    6 1     
   14    5   31 1     
   15    6    7 1     
   16    6   32 1     
   17    6   33 1     
   18    7    8 1     
   19    7   34 1     
   20    7   35 1     
   21    8    9 1     
   22    8   36 1     
   23    8   37 1     
   24    9   10 1     
   25    9   38 1     
   26    9   39 1     
   27   11   12 2     
   28   11   13 am    
   29   13   14 1     
   30   13   40 1     
   31   14   23 1     
   32   14   15 2     
   33   15   16 1     
   34   15   41 1     
   35   16   17 1     
   36   16   21 2     
   37   17   18 1     
   38   17   19 1     
   39   17   20 1     
   40   21   22 1     
   41   21   42 1     
   42   22   23 1     
   43   23   24 2     
   44    3   43 1     
   45    3   44 1     
   46   10   45 1     
   47   10   46 1     
   48   12   47 1     
   49   12   48 1     
   50   22   49 1     
   51   24   50 1     
   52   24   51 1     
@<TRIPOS>SUBSTRUCTURE
      1 S1             1
@<TRIPOS>SET
LONE_PAIRS      STATIC     ATOMS    <user>   **** ""
9 43 44 45 46 47 48 49 50 51
DONOR_HYDROGENS      STATIC     ATOMS    <user>   **** ""
1 40
ATOM$BLUE        STATIC     ATOMS    COLORGROUP SYSTEM
9 43 44 45 46 47 48 49 50 51
ATOM$RED        STATIC     ATOMS    COLORGROUP SYSTEM
1 40
