AV-unprocessed.smi:1323|AV-procd|sdf|5466|dock3
  -GOLD-   22720 5 33D 1   1.00000     0.00000
 Structure written by MMmdl.
 45 46  0  0  0  0  0  0  0  0  1 V2000
  152.7086  144.1139  161.5269 C   0  0  0  0  0  0  0  0  0  0  0  0
  151.9352  143.5693  160.3155 C   0  0  1  0  0  0  0  0  0  0  0  0
  152.1585  144.4369  159.0583 C   0  0  0  0  0  0  0  0  0  0  0  0
  151.3505  143.9144  157.8593 C   0  0  0  0  0  0  0  0  0  0  0  0
  151.6470  142.4321  157.5817 C   0  0  0  0  0  0  0  0  0  0  0  0
  151.4282  141.5749  158.8377 C   0  0  0  0  0  0  0  0  0  0  0  0
  152.2701  142.0884  160.0267 C   0  0  1  0  0  0  0  0  0  0  0  0
  153.6670  142.0215  159.7651 O   0  0  0  0  0  0  0  0  0  0  0  0
  154.4601  141.3221  160.7110 C   0  0  0  0  0  0  0  0  0  0  0  0
  153.8894  139.9051  160.8782 C   0  0  0  0  0  0  0  0  0  0  0  0
  154.7698  139.0589  161.6797 N   0  0  0  0  0  0  0  0  0  0  0  0
  154.4158  137.8878  162.2328 C   0  0  0  0  0  0  0  0  0  0  0  0
  153.3027  137.3814  162.0845 O   0  0  0  0  0  0  0  0  0  0  0  0
  155.4885  137.1685  163.0614 C   0  0  0  0  0  0  0  0  0  0  0  0
  155.2806  137.3370  164.5092 N   0  0  0  0  0  0  0  0  0  0  0  0
  155.3627  136.1798  165.3095 C   0  0  0  0  0  0  0  0  0  0  0  0
  155.1582  136.2176  166.6357 C   0  0  0  0  0  0  0  0  0  0  0  0
  154.8447  137.4899  167.2421 C   0  0  0  0  0  0  0  0  0  0  0  0
  154.7675  138.6034  166.4864 C   0  0  0  0  0  0  0  0  0  0  0  0
  154.9985  138.5676  165.0378 C   0  0  0  0  0  0  0  0  0  0  0  0
  154.9420  139.5822  164.3432 O   0  0  0  0  0  0  0  0  0  0  0  0
  153.7837  144.1251  161.3440 H   0  0  0  0  0  0  0  0  0  0  0  0
  152.5276  143.5061  162.4137 H   0  0  0  0  0  0  0  0  0  0  0  0
  152.4029  145.1343  161.7591 H   0  0  0  0  0  0  0  0  0  0  0  0
  150.8750  143.6228  160.5674 H   0  0  0  0  0  0  0  0  0  0  0  0
  151.8770  145.4705  159.2623 H   0  0  0  0  0  0  0  0  0  0  0  0
  153.2188  144.4551  158.8025 H   0  0  0  0  0  0  0  0  0  0  0  0
  150.2852  144.0411  158.0566 H   0  0  0  0  0  0  0  0  0  0  0  0
  151.5730  144.5099  156.9734 H   0  0  0  0  0  0  0  0  0  0  0  0
  151.0146  142.0729  156.7696 H   0  0  0  0  0  0  0  0  0  0  0  0
  152.6771  142.3174  157.2442 H   0  0  0  0  0  0  0  0  0  0  0  0
  150.3723  141.6040  159.1095 H   0  0  0  0  0  0  0  0  0  0  0  0
  151.6444  140.5292  158.6223 H   0  0  0  0  0  0  0  0  0  0  0  0
  152.0471  141.4923  160.9130 H   0  0  0  0  0  0  0  0  0  0  0  0
  155.4923  141.2645  160.3633 H   0  0  0  0  0  0  0  0  0  0  0  0
  154.4621  141.8343  161.6730 H   0  0  0  0  0  0  0  0  0  0  0  0
  152.8899  139.9459  161.3147 H   0  0  0  0  0  0  0  0  0  0  0  0
  153.7772  139.4400  159.8989 H   0  0  0  0  0  0  0  0  0  0  0  0
  155.7060  139.3993  161.8443 H   0  0  0  0  0  0  0  0  0  0  0  0
  155.4701  136.1104  162.7968 H   0  0  0  0  0  0  0  0  0  0  0  0
  156.4813  137.5180  162.7709 H   0  0  0  0  0  0  0  0  0  0  0  0
  155.5908  135.2680  164.7768 H   0  0  0  0  0  0  0  0  0  0  0  0
  155.2195  135.3193  167.2324 H   0  0  0  0  0  0  0  0  0  0  0  0
  154.6683  137.5490  168.3060 H   0  0  0  0  0  0  0  0  0  0  0  0
  154.5291  139.5462  166.9565 H   0  0  0  0  0  0  0  0  0  0  0  0
  1  2  1  0  0  0  0
  1 22  1  0  0  0  0
  1 23  1  0  0  0  0
  1 24  1  0  0  0  0
  2  7  1  0  0  0  0
  2  3  1  0  0  0  0
  2 25  1  0  0  0  0
  3  4  1  0  0  0  0
  3 26  1  0  0  0  0
  3 27  1  0  0  0  0
  4  5  1  0  0  0  0
  4 28  1  0  0  0  0
  4 29  1  0  0  0  0
  5  6  1  0  0  0  0
  5 30  1  0  0  0  0
  5 31  1  0  0  0  0
  6  7  1  0  0  0  0
  6 32  1  0  0  0  0
  6 33  1  0  0  0  0
  7  8  1  0  0  0  0
  7 34  1  0  0  0  0
  8  9  1  0  0  0  0
  9 10  1  0  0  0  0
  9 35  1  0  0  0  0
  9 36  1  0  0  0  0
 10 11  1  0  0  0  0
 10 37  1  0  0  0  0
 10 38  1  0  0  0  0
 11 12  1  0  0  0  0
 11 39  1  0  0  0  0
 12 13  2  0  0  0  0
 12 14  1  0  0  0  0
 14 15  1  0  0  0  0
 14 40  1  0  0  0  0
 14 41  1  0  0  0  0
 15 20  1  0  0  0  0
 15 16  1  0  0  0  0
 16 17  2  0  0  0  0
 16 42  1  0  0  0  0
 17 18  1  0  0  0  0
 17 43  1  0  0  0  0
 18 19  2  0  0  0  0
 18 44  1  0  0  0  0
 19 20  1  0  0  0  0
 19 45  1  0  0  0  0
 20 21  2  0  0  0  0
M  END
> <s_m_source_file>
AV-unprocessed.smi

> <i_m_source_file_index>
1323

> <i_lp_mmshare_version>
43012

> <i_f3d_flags>
0

> <s_epik_input>
W0NIM11bQ0BASF0xW0NIMl1bQ0gyXVtDSDJdW0NIMl1bQ0BIXTFPW0NIMl1bQ0gyXVtOSF1DKD1PKVtDSDJdbjJbY0hdW2NIXVtjSF1bY0hdYzI9Tw==

> <s_epik_cmdline>
J2VwaWtfcHl0aG9uJywgJy1waCcsICc3LjAnLCAnLXRuJywgJzgnLCAnLW1hJywgJzIwMCcsICctbWV0YWxfYmluZGluZycsICctaW1hZScsICc8aW5maWxlLm1hZT4nLCAnLW9tYWUnLCAnPG91dGZpbGUubWFlPic=

> <r_lp_tautomer_probability>
1

> <r_epik_Ionization_Penalty>
4.02412e-07

> <r_epik_Ionization_Penalty_Charging>
3.74552e-07

> <r_epik_Ionization_Penalty_Neutral>
2.78599e-08

> <r_epik_State_Penalty>
-0

> <r_epik_Charging_Adjusted_Penalty>
3.74552e-07

> <i_epik_Tot_Q>
0

> <i_epik_Tot_abs_Q>
0

> <r_epik_Metal_State_Penalty>
-0

> <b_epik_Metal_Only>
0

> <s_lp_Force_Field>
OPLS_2005

> <r_lp_Energy>
18.6453

> <b_lp_Chiralities_Consistent>
1

> <s_lp_Variant>
AV-unprocessed.smi:1323-2

> <Gold.Version>
5.8.1

> <Gold.Id.Protein>
6NUR|6NUR_protein|mol2

> <Gold.PLP.Fitness>
46.7694

> <Gold.PLP.PLP>
-46.1836

> <Gold.PLP.part.hbond>
-1.0000

> <Gold.PLP.part.metal>
0.0000

> <Gold.PLP.part.buried>
-6.4490

> <Gold.PLP.part.nonpolar>
-39.5441

> <Gold.PLP.part.repulsive>
0.0317

> <Gold.PLP.ligand.clash>
0.0000

> <Gold.PLP.ligand.torsion>
1.2595

> <Gold.PLP.Chemscore.Hbond>
1.0000

> <Gold.PLP.Chemscore.CHOScore>
0.0000

> <Gold.PLP.Chemscore.Metal>
0.0000

> <Gold.PLP.Chemscore.Internal.Correction>
0.1048

> <Gold.Rescore>
     Score         DG    S(hbond)    S(metal)    S(lipo)     H(rot)  DE(clash)    DE(int)     intcor
     15.04     -17.79       0.99        0.00     119.53       1.94       0.16       2.59       ----

> <Gold.Chemscore.Fitness>
15.0412

> <Gold.Chemscore.DG>
-17.7893

> <Gold.Chemscore.ZeroCoef>
-5.4800

> <Gold.Chemscore.Hbond>
0.9852

> <Gold.Chemscore.Metal>
0.0000

> <Gold.Chemscore.Lipo>
119.5273

> <Gold.Chemscore.Internal_Hbond>
0.0000

> <Gold.Chemscore.DEClash>
0.1597

> <Gold.Chemscore.DEInternal>
2.5885

> <Gold.Chemscore.Rot>
1.9398

> <Gold.Chemscore.Internal.Correction>
   9.000000E+99

> <Gold.Chemscore.Hbond.Weighted>
-3.2906

> <Gold.Chemscore.Metal.Weighted>
-0.0000

> <Gold.Chemscore.Lipo.Weighted>
-13.9847

> <Gold.Chemscore.Internal_Hbond.Weighted>
0.0000

> <Gold.Chemscore.DEClash.Weighted>
0.1597

> <Gold.Chemscore.DEInternal.Weighted>
2.5885

> <Gold.Chemscore.Rot.Weighted>
4.9659

> <Gold.Chemscore.Internal.Correction.Weighted>
   9.000000E+99

> <Gold.Protein.RotatedTorsions>
[ 6907 6896 6895 6894 ] final   40.57 input  -60.11 | X-H torsion
[ 7974 7965 7964 7962 ] final  -48.78 input  175.53 | X-H torsion
[ 8008 7997 7996 7995 ] final  101.08 input   59.86 | X-H torsion
[ 10167 10162 10161 10158 ] final -165.66 input  -65.29 | X-H torsion
[ 10718 10713 10712 10709 ] final -124.18 input   66.30 | X-H torsion
[ 10763 10752 10751 10750 ] final    0.88 input  -60.55 | X-H torsion
[ 11005 11000 10999 10996 ] final   17.09 input  -57.11 | X-H torsion

> <Gold.Protein.ActiveResidues>
 VAL166  LYS551  ARG553  GLY616  TRP617  ASP618  TYR619  PRO620  LYS621  CYS622 
 ASP623  PHE694  ASN695  SER759  ASP760  ASP761  ALA762  ILE779  LEU786  VAL792 
 PHE793  MET794  SER795  GLU796  ALA797  LYS798  CYS799  TRP800  GLU811  SER814 

> <Gold.Protein.RotatedAtoms>
  152.1841  134.8728  160.0523 H   0  0  0  0  0  0  0  0  0  0  0  0  # atno 6907 bound_to 6896
  151.9642  133.3700  159.4055 H   0  0  0  0  0  0  0  0  0  0  0  0  # atno 6908 bound_to 6896
  150.6923  134.4132  159.5215 H   0  0  0  0  0  0  0  0  0  0  0  0  # atno 6909 bound_to 6896
  145.9476  140.7603  142.9521 H   0  0  0  0  0  0  0  0  0  0  0  0  # atno 7974 bound_to 7965
  156.1265  140.3203  155.8284 H   0  0  0  0  0  0  0  0  0  0  0  0  # atno 8008 bound_to 7997
  155.4411  140.0525  157.3027 H   0  0  0  0  0  0  0  0  0  0  0  0  # atno 8009 bound_to 7997
  154.4866  140.2075  155.9655 H   0  0  0  0  0  0  0  0  0  0  0  0  # atno 8010 bound_to 7997
  139.6167  144.0705  152.1894 H   0  0  0  0  0  0  0  0  0  0  0  0  # atno 10167 bound_to 10162
  156.1566  130.6572  150.9990 H   0  0  0  0  0  0  0  0  0  0  0  0  # atno 10718 bound_to 10713
  153.3150  135.6965  153.7081 H   0  0  0  0  0  0  0  0  0  0  0  0  # atno 10763 bound_to 10752
  153.5944  135.3474  155.2923 H   0  0  0  0  0  0  0  0  0  0  0  0  # atno 10764 bound_to 10752
  154.8584  135.4325  154.2299 H   0  0  0  0  0  0  0  0  0  0  0  0  # atno 10765 bound_to 10752
  140.4398  134.1333  155.7689 H   0  0  0  0  0  0  0  0  0  0  0  0  # atno 11005 bound_to 11000
  144.6790  140.2382  143.7347 LP  0  0  0  0  0  0  0  0  0  0  0  0  # atno 17320 bound_to 7965
  145.8215  139.2046  143.1935 LP  0  0  0  0  0  0  0  0  0  0  0  0  # atno 17321 bound_to 7965
  140.0337  144.6061  150.7467 LP  0  0  0  0  0  0  0  0  0  0  0  0  # atno 17342 bound_to 10162
  140.7355  143.2742  151.3793 LP  0  0  0  0  0  0  0  0  0  0  0  0  # atno 17343 bound_to 10162
  157.6700  131.0863  150.7636 LP  0  0  0  0  0  0  0  0  0  0  0  0  # atno 17370 bound_to 10713
  156.7701  130.4826  149.5420 LP  0  0  0  0  0  0  0  0  0  0  0  0  # atno 17371 bound_to 10713
  141.1710  133.8608  157.1570 LP  0  0  0  0  0  0  0  0  0  0  0  0  # atno 17394 bound_to 11000
  140.0077  135.0001  157.0328 LP  0  0  0  0  0  0  0  0  0  0  0  0  # atno 17395 bound_to 11000

$$$$
