AV-unprocessed.smi:1012|AV-procd|sdf|4425|dock2
  -GOLD-   22720 2373D 1   1.00000     0.00000
 Structure written by MMmdl.
 44 46  0  0  0  0  0  0  0  0  2 V2000
  147.9427  131.9405  160.1921 C   0  0  0  0  0  0  0  0  0  0  0  0
  148.0728  133.3192  159.8774 O   0  0  0  0  0  0  0  0  0  0  0  0
  147.8992  134.2408  160.8905 C   0  0  0  0  0  0  0  0  0  0  0  0
  147.5329  133.8910  162.2156 C   0  0  0  0  0  0  0  0  0  0  0  0
  147.3734  134.8837  163.2010 C   0  0  0  0  0  0  0  0  0  0  0  0
  147.5774  136.2370  162.8786 C   0  0  0  0  0  0  0  0  0  0  0  0
  147.9410  136.5969  161.5685 C   0  0  0  0  0  0  0  0  0  0  0  0
  148.1009  135.6064  160.5764 C   0  0  0  0  0  0  0  0  0  0  0  0
  148.4975  136.0154  159.1698 C   0  0  0  0  0  0  0  0  0  0  0  0
  149.8085  136.5546  159.1379 O   0  0  0  0  0  0  0  0  0  0  0  0
  149.8263  137.9381  158.8304 C   0  0  0  0  0  0  0  0  0  0  0  0
  151.2875  138.4120  158.7296 C   0  0  1  0  0  0  0  0  0  0  0  0
  152.1327  137.2894  158.8713 O   0  0  0  0  0  0  0  0  0  0  0  0
  151.6385  139.0787  157.3842 C   0  0  0  0  0  0  0  0  0  0  0  0
  151.2328  140.4902  157.3215 N   0  0  0  0  0  0  0  0  0  0  0  0
  150.4779  141.1285  156.3864 C   0  0  0  0  0  0  0  0  0  0  0  0
  150.3709  142.4325  156.7630 N   0  3  0  0  0  0  0  0  0  0  0  0
  151.0672  142.6316  157.9569 C   0  0  0  0  0  0  0  0  0  0  0  0
  151.2489  143.7780  158.7235 C   0  0  0  0  0  0  0  0  0  0  0  0
  152.0247  143.6436  159.8935 C   0  0  0  0  0  0  0  0  0  0  0  0
  152.2355  144.7289  160.6750 F   0  0  0  0  0  0  0  0  0  0  0  0
  152.5855  142.4028  160.2632 C   0  0  0  0  0  0  0  0  0  0  0  0
  153.3270  142.3176  161.3928 F   0  0  0  0  0  0  0  0  0  0  0  0
  152.3913  141.2464  159.4792 C   0  0  0  0  0  0  0  0  0  0  0  0
  151.6233  141.3877  158.3234 C   0  0  0  0  0  0  0  0  0  0  0  0
  148.1012  131.3498  159.2899 H   0  0  0  0  0  0  0  0  0  0  0  0
  146.9446  131.7085  160.5661 H   0  0  0  0  0  0  0  0  0  0  0  0
  148.6867  131.6270  160.9257 H   0  0  0  0  0  0  0  0  0  0  0  0
  147.3680  132.8642  162.5043 H   0  0  0  0  0  0  0  0  0  0  0  0
  147.0946  134.6053  164.2065 H   0  0  0  0  0  0  0  0  0  0  0  0
  147.4554  136.9981  163.6352 H   0  0  0  0  0  0  0  0  0  0  0  0
  148.0952  137.6385  161.3283 H   0  0  0  0  0  0  0  0  0  0  0  0
  148.4380  135.1548  158.5016 H   0  0  0  0  0  0  0  0  0  0  0  0
  147.7780  136.7504  158.8054 H   0  0  0  0  0  0  0  0  0  0  0  0
  149.2793  138.1520  157.9103 H   0  0  0  0  0  0  0  0  0  0  0  0
  149.3131  138.4582  159.6387 H   0  0  0  0  0  0  0  0  0  0  0  0
  151.5039  139.1124  159.5375 H   0  0  0  0  0  0  0  0  0  0  0  0
  152.2621  136.8984  158.0209 H   0  0  0  0  0  0  0  0  0  0  0  0
  152.7189  139.0589  157.2338 H   0  0  0  0  0  0  0  0  0  0  0  0
  151.2060  138.5330  156.5457 H   0  0  0  0  0  0  0  0  0  0  0  0
  150.0426  140.6807  155.5041 H   0  0  0  0  0  0  0  0  0  0  0  0
  150.8225  144.7299  158.4433 H   0  0  0  0  0  0  0  0  0  0  0  0
  152.8315  140.3056  159.7734 H   0  0  0  0  0  0  0  0  0  0  0  0
  149.8595  143.1325  156.2405 H   0  0  0  0  0  0  0  0  0  0  0  0
  1  2  1  0  0  0  0
  1 26  1  0  0  0  0
  1 27  1  0  0  0  0
  1 28  1  0  0  0  0
  2  3  1  0  0  0  0
  3  8  1  0  0  0  0
  3  4  2  0  0  0  0
  4  5  1  0  0  0  0
  4 29  1  0  0  0  0
  5  6  2  0  0  0  0
  5 30  1  0  0  0  0
  6  7  1  0  0  0  0
  6 31  1  0  0  0  0
  7  8  2  0  0  0  0
  7 32  1  0  0  0  0
  8  9  1  0  0  0  0
  9 10  1  0  0  0  0
  9 33  1  0  0  0  0
  9 34  1  0  0  0  0
 10 11  1  0  0  0  0
 11 12  1  0  0  0  0
 11 35  1  0  0  0  0
 11 36  1  0  0  0  0
 12 13  1  0  0  0  0
 12 14  1  0  0  0  0
 12 37  1  0  0  0  0
 13 38  1  0  0  0  0
 14 15  1  0  0  0  0
 14 39  1  0  0  0  0
 14 40  1  0  0  0  0
 15 25  1  0  0  0  0
 15 16  1  0  0  0  0
 16 17  2  0  0  0  0
 16 41  1  0  0  0  0
 17 18  1  0  0  0  0
 17 44  1  0  0  0  0
 18 25  2  0  0  0  0
 18 19  1  0  0  0  0
 19 20  2  0  0  0  0
 19 42  1  0  0  0  0
 20 21  1  0  0  0  0
 20 22  1  0  0  0  0
 22 23  1  0  0  0  0
 22 24  2  0  0  0  0
 24 25  1  0  0  0  0
 24 43  1  0  0  0  0
M  CHG  1  17   1
M  END
> <s_m_source_file>
AV-unprocessed.smi

> <i_m_source_file_index>
1012

> <i_lp_mmshare_version>
43012

> <i_f3d_flags>
0

> <s_epik_input>
W0NIM11PYzFbY0hdW2NIXVtjSF1bY0hdYzFbQ0gyXU9bQ0gyXVtDQEhdKFtPSF0pW0NIMl1uKFtjSF1uMiljKGMyMylbY0hdYyhGKWMoRilbY0hdMw==

> <s_epik_cmdline>
J2VwaWtfcHl0aG9uJywgJy1waCcsICc3LjAnLCAnLXRuJywgJzgnLCAnLW1hJywgJzIwMCcsICctbWV0YWxfYmluZGluZycsICctaW1hZScsICc8aW5maWxlLm1hZT4nLCAnLW9tYWUnLCAnPG91dGZpbGUubWFlPic=

> <r_lp_tautomer_probability>
1

> <r_epik_Ionization_Penalty>
2.14697

> <r_epik_Ionization_Penalty_Charging>
2.14697

> <r_epik_Ionization_Penalty_Neutral>
1.07667e-06

> <r_epik_State_Penalty>
2.28651

> <r_epik_Charging_Adjusted_Penalty>
4.43348

> <i_epik_Tot_Q>
1

> <i_epik_Tot_abs_Q>
1

> <r_epik_Metal_State_Penalty>
6.36664

> <b_epik_Metal_Only>
0

> <s_lp_Force_Field>
OPLS_2005

> <r_lp_Energy>
25.548

> <b_lp_Chiralities_Consistent>
1

> <s_lp_Variant>
AV-unprocessed.smi:1012-4

> <Gold.Version>
5.8.1

> <Gold.Id.Protein>
6NUR|6NUR_protein|mol2

> <Gold.PLP.Fitness>
60.1803

> <Gold.PLP.PLP>
-55.8536

> <Gold.PLP.part.hbond>
-2.0665

> <Gold.PLP.part.metal>
0.0000

> <Gold.PLP.part.buried>
-6.7610

> <Gold.PLP.part.nonpolar>
-48.2741

> <Gold.PLP.part.repulsive>
0.0701

> <Gold.PLP.ligand.clash>
1.8986

> <Gold.PLP.ligand.torsion>
1.4217

> <Gold.PLP.Chemscore.Hbond>
2.9263

> <Gold.PLP.Chemscore.CHOScore>
0.0000

> <Gold.PLP.Chemscore.Metal>
0.0000

> <Gold.Chemscore.Hbonds>
donor molecule, donor type, donor heavy atom, donor atom, acceptor molecule, acceptor atom, score
      L1  H    17    44       P1  8028  2.00
      P1  H  6896  6907       L1    10  0.83

> <Gold.PLP.Chemscore.Internal.Correction>
0.2900

> <Gold.Rescore>
     Score         DG    S(hbond)    S(metal)    S(lipo)     H(rot)  DE(clash)    DE(int)     intcor
     15.78     -17.41       1.52        0.00     124.82       3.03       0.19       1.44       ----

> <Gold.Chemscore.Fitness>
15.7809

> <Gold.Chemscore.DG>
-17.4149

> <Gold.Chemscore.ZeroCoef>
-5.4800

> <Gold.Chemscore.Hbond>
1.5217

> <Gold.Chemscore.Metal>
0.0000

> <Gold.Chemscore.Lipo>
124.8170

> <Gold.Chemscore.Internal_Hbond>
0.0000

> <Gold.Chemscore.DEClash>
0.1908

> <Gold.Chemscore.DEInternal>
1.4432

> <Gold.Chemscore.Rot>
3.0278

> <Gold.Chemscore.Internal.Correction>
   9.000000E+99

> <Gold.Chemscore.Hbonds>
donor molecule, donor type, donor heavy atom, donor atom, acceptor molecule, acceptor atom, score
      L1  H    17    44       P1  8028  0.99
      P1  H  6896  6907       L1    10  0.16

> <Gold.Chemscore.Hbond.Weighted>
-5.0825

> <Gold.Chemscore.Metal.Weighted>
-0.0000

> <Gold.Chemscore.Lipo.Weighted>
-14.6036

> <Gold.Chemscore.Internal_Hbond.Weighted>
0.0000

> <Gold.Chemscore.DEClash.Weighted>
0.1908

> <Gold.Chemscore.DEInternal.Weighted>
1.4432

> <Gold.Chemscore.Rot.Weighted>
7.7512

> <Gold.Chemscore.Internal.Correction.Weighted>
   9.000000E+99

> <Gold.Protein.RotatedTorsions>
[ 6907 6896 6895 6894 ] final  -52.45 input  -60.11 | X-H torsion
[ 7974 7965 7964 7962 ] final   -3.77 input  175.53 | X-H torsion
[ 8008 7997 7996 7995 ] final   25.81 input   59.86 | X-H torsion
[ 10167 10162 10161 10158 ] final  -87.85 input  -65.29 | X-H torsion
[ 10718 10713 10712 10709 ] final   64.17 input   66.30 | X-H torsion
[ 10763 10752 10751 10750 ] final  103.65 input  -60.55 | X-H torsion
[ 11005 11000 10999 10996 ] final  156.28 input  -57.11 | X-H torsion

> <Gold.Protein.ActiveResidues>
 VAL166  LYS551  ARG553  GLY616  TRP617  ASP618  TYR619  PRO620  LYS621  CYS622 
 ASP623  PHE694  ASN695  SER759  ASP760  ASP761  ALA762  ILE779  LEU786  VAL792 
 PHE793  MET794  SER795  GLU796  ALA797  LYS798  CYS799  TRP800  GLU811  SER814 

> <Gold.Protein.RotatedAtoms>
  150.8516  134.7843  159.7013 H   0  0  0  0  0  0  0  0  0  0  0  0  # atno 6907 bound_to 6896
  152.4579  134.5246  159.9802 H   0  0  0  0  0  0  0  0  0  0  0  0  # atno 6908 bound_to 6896
  151.5366  133.3402  159.2963 H   0  0  0  0  0  0  0  0  0  0  0  0  # atno 6909 bound_to 6896
  146.2384  140.1771  142.8332 H   0  0  0  0  0  0  0  0  0  0  0  0  # atno 7974 bound_to 7965
  155.0175  140.3144  155.4806 H   0  0  0  0  0  0  0  0  0  0  0  0  # atno 8008 bound_to 7997
  156.2898  140.2203  156.5234 H   0  0  0  0  0  0  0  0  0  0  0  0  # atno 8009 bound_to 7997
  154.7481  140.0468  157.0857 H   0  0  0  0  0  0  0  0  0  0  0  0  # atno 8010 bound_to 7997
  140.3804  143.2751  151.9391 H   0  0  0  0  0  0  0  0  0  0  0  0  # atno 10167 bound_to 10162
  157.6021  130.9145  149.9811 H   0  0  0  0  0  0  0  0  0  0  0  0  # atno 10718 bound_to 10713
  153.3555  135.3969  155.1679 H   0  0  0  0  0  0  0  0  0  0  0  0  # atno 10763 bound_to 10752
  154.8670  135.3667  154.5166 H   0  0  0  0  0  0  0  0  0  0  0  0  # atno 10764 bound_to 10752
  153.5621  135.7081  153.5602 H   0  0  0  0  0  0  0  0  0  0  0  0  # atno 10765 bound_to 10752
  140.1660  134.8576  157.2632 H   0  0  0  0  0  0  0  0  0  0  0  0  # atno 11005 bound_to 11000
  144.9964  140.8593  143.5308 LP  0  0  0  0  0  0  0  0  0  0  0  0  # atno 17320 bound_to 7965
  145.1785  139.2365  143.5305 LP  0  0  0  0  0  0  0  0  0  0  0  0  # atno 17321 bound_to 7965
  139.4796  144.5824  151.7910 LP  0  0  0  0  0  0  0  0  0  0  0  0  # atno 17342 bound_to 10162
  140.4943  144.1263  150.5957 LP  0  0  0  0  0  0  0  0  0  0  0  0  # atno 17343 bound_to 10162
  156.1098  130.3650  150.0070 LP  0  0  0  0  0  0  0  0  0  0  0  0  # atno 17370 bound_to 10713
  156.8170  130.9345  151.3642 LP  0  0  0  0  0  0  0  0  0  0  0  0  # atno 17371 bound_to 10713
  140.2434  134.3769  155.7471 LP  0  0  0  0  0  0  0  0  0  0  0  0  # atno 17394 bound_to 11000
  141.2213  133.7277  156.8823 LP  0  0  0  0  0  0  0  0  0  0  0  0  # atno 17395 bound_to 11000

$$$$
